aqu_catunit.ele: written by SWAT+ editor v3.0.4 on 2024-11-12 23:05 for SWAT+ rev.61.0.1
      id  name                   obj_typ  obj_typ_no      bsn_frac      sub_frac      reg_frac  
       1  aqu10                      aqu           1       0.31388       0.00000       0.00000  
       2  aqu20                      aqu           2       0.03077       0.00000       0.00000  
       3  aqu30                      aqu           3       0.01532       0.00000       0.00000  
       4  aqu40                      aqu           4       0.26909       0.00000       0.00000  
       5  aqu50                      aqu           5       0.10803       0.00000       0.00000  
       6  aqu60                      aqu           6       0.12790       0.00000       0.00000  
       7  aqu70                      aqu           7       0.13502       0.00000       0.00000  
       8  aqu_deep03                 aqu           8       1.00000       0.00000       0.00000  
