aquifer.con: written by SWAT+ editor v3.0.4 on 2024-11-12 23:04 for SWAT+ rev.61.0.1
      id  name                gis_id          area           lat           lon          elev       aqu               wst       cst      ovfl      rule   out_tot       obj_typ    obj_id       hyd_typ          frac  
       1  aqu10                   10   68307.30000      -5.24135     -79.67815     595.00000         1              null         0         0         0         2           sdc        11           tot       1.00000           aqu         8           rhg       1.00000  
       2  aqu20                   20    6697.08000      -5.31610     -79.87190     501.00000         2              null         0         0         0         2           sdc         6           tot       1.00000           aqu         8           rhg       1.00000  
       3  aqu30                   30    3333.15000      -5.30820     -79.93905     141.00000         3              null         0         0         0         2           sdc         5           tot       1.00000           aqu         8           rhg       1.00000  
       4  aqu40                   40   58559.76000      -5.42478     -79.69422     316.00000         4              null         0         0         0         2           sdc         9           tot       1.00000           aqu         8           rhg       1.00000  
       5  aqu50                   50   23509.44000      -5.43355     -79.89006     443.00000         5              null         0         0         0         2           sdc        10           tot       1.00000           aqu         8           rhg       1.00000  
       6  aqu60                   60   27834.03000      -5.51858     -79.56802    1227.00000         6              null         0         0         0         2           sdc        53           tot       1.00000           aqu         8           rhg       1.00000  
       7  aqu70                   70   29383.56000      -5.60785     -79.65909     650.00000         7              null         0         0         0         2           sdc        49           tot       1.00000           aqu         8           rhg       1.00000  
       8  aqu_deep03               3  217624.32000      -5.39975     -79.69867     581.91699         8              null         0         0         0         0  
