aquifer.aqu: written by SWAT+ editor v3.0.4 on 2024-11-12 23:05 for SWAT+ rev.61.0.1
      id  name                          init        gw_flo       dep_bot        dep_wt         no3_n         sol_p        carbon      flo_dist        bf_max      alpha_bf         revap       rchg_dp      spec_yld       hl_no3n       flo_min     revap_min  
       1  aqu10                     initaqu1       0.05000      10.00000       3.00000       0.00000       0.00000       0.50000      50.00000       1.00000       0.05000       0.02000       0.05000       0.05000      30.00000       3.00000       5.00000  
       2  aqu20                     initaqu1       0.05000      10.00000       3.00000       0.00000       0.00000       0.50000      50.00000       1.00000       0.05000       0.02000       0.05000       0.05000      30.00000       3.00000       5.00000  
       3  aqu30                     initaqu1       0.05000      10.00000       3.00000       0.00000       0.00000       0.50000      50.00000       1.00000       0.05000       0.02000       0.05000       0.05000      30.00000       3.00000       5.00000  
       4  aqu40                     initaqu1       0.05000      10.00000       3.00000       0.00000       0.00000       0.50000      50.00000       1.00000       0.05000       0.02000       0.05000       0.05000      30.00000       3.00000       5.00000  
       5  aqu50                     initaqu1       0.05000      10.00000       3.00000       0.00000       0.00000       0.50000      50.00000       1.00000       0.05000       0.02000       0.05000       0.05000      30.00000       3.00000       5.00000  
       6  aqu60                     initaqu1       0.05000      10.00000       3.00000       0.00000       0.00000       0.50000      50.00000       1.00000       0.05000       0.02000       0.05000       0.05000      30.00000       3.00000       5.00000  
       7  aqu70                     initaqu1       0.05000      10.00000       3.00000       0.00000       0.00000       0.50000      50.00000       1.00000       0.05000       0.02000       0.05000       0.05000      30.00000       3.00000       5.00000  
       8  aqu_deep03                initaqu1       0.00000     100.00000      20.00000       0.00000       0.00000       0.50000      50.00000       1.00000       0.01000       0.00000       0.00000       0.03000      30.00000       0.00000       0.00000  
