bmpuser.str: written by SWAT+ editor v3.0.4 on 2024-11-12 23:05 for SWAT+ rev.61.0.1
name                  flag       sed_eff      ptlp_eff      solp_eff      ptln_eff      soln_eff      bact_eff  description
bmpusr1                  1       0.20000       0.20000       0.20000       0.20000       0.20000       0.20000  
