chandeg.con: written by SWAT+ editor v3.0.4 on 2024-11-12 23:04 for SWAT+ rev.61.0.1
      id  name                gis_id          area           lat           lon          elev      lcha               wst       cst      ovfl      rule   out_tot       obj_typ    obj_id       hyd_typ          frac  
       1  cha01                    1    7872.39040      -5.17997     -79.61636             0         1              null         0         0         0         1           sdc        19           tot       1.00000  
       2  cha02                    2    2083.32000      -5.17587     -79.60338             0         2              null         0         0         0         1           sdc         1           tot       1.00000  
       3  cha03                    3    3244.05000      -5.16860     -79.62653             0         3              null         0         0         0         1           sdc        19           tot       1.00000  
       4  cha04                    4    5307.12000      -5.15063     -79.60140             0         4              null         0         0         0         1           sdc         1           tot       1.00000  
       5  cha05                    5  217622.70720      -5.29861     -79.93037             0         5              null         0         0         0         0  
       6  cha06                    6  190781.73440      -5.32177     -79.90759             0         6              null         0         0         0         1           sdc         5           tot       1.00000  
       7  cha07                    7  186775.47520      -5.32501     -79.89377             0         7              null         0         0         0         1           sdc         6           tot       1.00000  
       8  cha08                    8  184492.08320      -5.32579     -79.87712             0         8              null         0         0         0         1           sdc         7           tot       1.00000  
       9  cha09                    9  115777.34400      -5.36152     -79.83036             0         9              null         0         0         0         1           sdc         8           tot       1.00000  
      10  cha10                   10   23509.44000      -5.34214     -79.91283             0        10              null         0         0         0         1           sdc         5           tot       1.00000  
      11  cha11                   11   68307.30240      -5.31919     -79.83044             0        11              null         0         0         0         1           sdc         8           tot       1.00000  
      12  cha12                   12   57241.08160      -5.31054     -79.77686             0        12              null         0         0         0         1           sdc        11           tot       1.00000  
      13  cha13                   13   51388.01920      -5.31698     -79.74274             0        13              null         0         0         0         1           sdc        12           tot       1.00000  
      14  cha14                   14   46233.18080      -5.30022     -79.70704             0        14              null         0         0         0         1           sdc        13           tot       1.00000  
      15  cha15                   15   34536.78080      -5.26680     -79.68113             0        15              null         0         0         0         1           sdc        14           tot       1.00000  
      16  cha16                   16   23583.96000      -5.25090     -79.67060             0        16              null         0         0         0         1           sdc        15           tot       1.00000  
      17  cha17                   17   18410.48960      -5.23622     -79.65602             0        17              null         0         0         0         1           sdc        16           tot       1.00000  
      18  cha18                   18    3717.09000      -5.33119     -79.72565             0        18              null         0         0         0         1           sdc        13           tot       1.00000  
      19  cha19                   19   13685.76000      -5.20647     -79.63660             0        19              null         0         0         0         1           sdc        17           tot       1.00000  
      20  cha20                   20   10240.83040      -5.20820     -79.68734             0        20              null         0         0         0         1           sdc        15           tot       1.00000  
      21  cha21                   21    3971.43000      -5.21906     -79.62764             0        21              null         0         0         0         1           sdc        17           tot       1.00000  
      22  cha22                   22    8001.18000      -5.30121     -79.79474             0        22              null         0         0         0         1           sdc        11           tot       1.00000  
      23  cha23                   23    2279.34000      -5.32744     -79.89133             0        23              null         0         0         0         1           sdc         7           tot       1.00000  
      24  cha24                   24    3363.93000      -5.31808     -79.89054             0        24              null         0         0         0         1           sdc         6           tot       1.00000  
      25  cha25                   25    6732.72000      -5.28952     -79.64860             0        25              null         0         0         0         1           sdc        14           tot       1.00000  
      26  cha26                   26    3380.94000      -5.29175     -79.74238             0        26              null         0         0         0         1           sdc        12           tot       1.00000  
      27  cha27                   27    3015.63000      -5.27801     -79.79032             0        27              null         0         0         0         1           sdc        22           tot       1.00000  
      28  cha28                   28    4605.66000      -5.24960     -79.63447             0        28              null         0         0         0         1           sdc        16           tot       1.00000  
      29  cha29                   29    3944.70000      -5.26820     -79.77288             0        29              null         0         0         0         1           sdc        22           tot       1.00000  
      30  cha30                   30  107599.59040      -5.41190     -79.78397             0        30              null         0         0         0         1           sdc         9           tot       1.00000  
      31  cha31                   31   85346.45760      -5.42936     -79.76606             0        31              null         0         0         0         1           sdc        30           tot       1.00000  
      32  cha32                   32   72490.13760      -5.44035     -79.76401             0        32              null         0         0         0         1           sdc        31           tot       1.00000  
      33  cha33                   33   64490.57920      -5.46716     -79.74040             0        33              null         0         0         0         1           sdc        32           tot       1.00000  
      34  cha34                   34   18378.08960      -5.38242     -79.90951             0        34              null         0         0         0         1           sdc        10           tot       1.00000  
      35  cha35                   35   13611.24000      -5.41296     -79.91636             0        35              null         0         0         0         1           sdc        34           tot       1.00000  
      36  cha36                   36    7227.63040      -5.47904     -79.77814             0        36              null         0         0         0         1           sdc        32           tot       1.00000  
      37  cha37                   37    9038.79040      -5.45482     -79.87770             0        37              null         0         0         0         1           sdc        35           tot       1.00000  
      38  cha38                   38    3743.01000      -5.44798     -79.92645             0        38              null         0         0         0         1           sdc        35           tot       1.00000  
      39  cha39                   39   18879.48000      -5.41868     -79.71857             0        39              null         0         0         0         1           sdc        30           tot       1.00000  
      40  cha40                   40   10845.08960      -5.40673     -79.64915             0        40              null         0         0         0         1           sdc        39           tot       1.00000  
      41  cha41                   41   12706.47040      -5.42873     -79.65926             0        41              null         0         0         0         1           sdc        31           tot       1.00000  
      42  cha42                   42    2950.02000      -5.40561     -79.90013             0        42              null         0         0         0         1           sdc        34           tot       1.00000  
      43  cha43                   43    3102.30000      -5.40543     -79.61261             0        43              null         0         0         0         1           sdc        40           tot       1.00000  
      44  cha44                   44    2016.09000      -5.39687     -79.79821             0        44              null         0         0         0         1           sdc         9           tot       1.00000  
      45  cha45                   45    3103.11000      -5.39821     -79.66217             0        45              null         0         0         0         1           sdc        39           tot       1.00000  
      46  cha46                   46    2139.21000      -5.36857     -79.89979             0        46              null         0         0         0         1           sdc        10           tot       1.00000  
      47  cha47                   47    6385.23000      -5.37610     -79.60455             0        47              null         0         0         0         1           sdc        40           tot       1.00000  
      48  cha48                   48   57877.74080      -5.49437     -79.71516             0        48              null         0         0         0         1           sdc        33           tot       1.00000  
      49  cha49                   49   29383.55840      -5.52694     -79.71631             0        49              null         0         0         0         1           sdc        48           tot       1.00000  
      50  cha50                   50   25067.88000      -5.56315     -79.71339             0        50              null         0         0         0         1           sdc        49           tot       1.00000  
      51  cha51                   51   18245.24960      -5.59563     -79.67716             0        51              null         0         0         0         1           sdc        50           tot       1.00000  
      52  cha52                   52    3666.87000      -5.58635     -79.71496             0        52              null         0         0         0         1           sdc        50           tot       1.00000  
      53  cha53                   53   27834.02880      -5.51178     -79.67369             0        53              null         0         0         0         1           sdc        48           tot       1.00000  
      54  cha54                   54   19839.32960      -5.51858     -79.62128             0        54              null         0         0         0         1           sdc        53           tot       1.00000  
      55  cha55                   55   13370.67040      -5.51486     -79.59530             0        55              null         0         0         0         1           sdc        54           tot       1.00000  
      56  cha56                   56    1997.46000      -5.55258     -79.71991             0        56              null         0         0         0         1           sdc        49           tot       1.00000  
      57  cha57                   57    3647.43000      -5.53527     -79.61962             0        57              null         0         0         0         1           sdc        53           tot       1.00000  
      58  cha58                   58    4925.61000      -5.53233     -79.58307             0        58              null         0         0         0         1           sdc        54           tot       1.00000  
      59  cha59                   59    5748.57000      -5.51313     -79.55225             0        59              null         0         0         0         1           sdc        55           tot       1.00000  
      60  cha60                   60    2810.70000      -5.48906     -79.70583             0        60              null         0         0         0         1           sdc        33           tot       1.00000  
      61  cha61                   61    6897.96000      -5.49278     -79.55189             0        61              null         0         0         0         1           sdc        55           tot       1.00000  
      62  cha62                   62   10797.30000      -5.62361     -79.63160             0        62              null         0         0         0         1           sdc        51           tot       1.00000  
      63  cha63                   63    3410.91000      -5.65084     -79.61569             0        63              null         0         0         0         1           sdc        62           tot       1.00000  
      64  cha64                   64    5836.05000      -5.62515     -79.59503             0        64              null         0         0         0         1           sdc        62           tot       1.00000  
      65  cha65                   65    2237.22000      -5.61102     -79.64178             0        65              null         0         0         0         1           sdc        51           tot       1.00000  
