hru.con: written by SWAT+ editor v3.0.4 on 2024-11-12 23:04 for SWAT+ rev.61.0.1
      id  name                gis_id          area           lat           lon          elev       hru               wst       cst      ovfl      rule   out_tot  
       1  hru001                   1    1276.95229      -5.11846     -79.56830    3053.10535         1              null         0         0         0         0  
       2  hru002                   2     219.44172      -5.11948     -79.55660    3221.33668         2              null         0         0         0         0  
       3  hru003                   3     269.06421      -5.11554     -79.56929    2949.05738         3              null         0         0         0         0  
       4  hru004                   4    3045.63413      -5.13459     -79.59230    2397.46299         4              null         0         0         0         0  
       5  hru005                   5     496.02765      -5.13311     -79.59271    2343.52088         5              null         0         0         0         0  
       6  hru006                   6    1132.47457      -5.17078     -79.68523    1645.77273         6              null         0         0         0         0  
       7  hru007                   7    1242.57627      -5.15242     -79.68787    1951.76180         7              null         0         0         0         0  
       8  hru008                   8    1157.31294      -5.17194     -79.68750    1594.56124         8              null         0         0         0         0  
       9  hru009                   9    2221.66902      -5.20864     -79.69074     930.41684         9              null         0         0         0         0  
      10  hru010                  10     185.13981      -5.20549     -79.70830     983.87425        10              null         0         0         0         0  
      11  hru011                  11     323.71752      -5.20471     -79.70677     916.44863        11              null         0         0         0         0  
      12  hru012                  12    1921.11462      -5.15016     -79.68283    1853.31627        12              null         0         0         0         0  
      13  hru013                  13    2056.82524      -5.17160     -79.68269    1405.33293        13              null         0         0         0         0  
      14  hru014                  14    1909.99765      -5.12779     -79.63982    2591.02267        14              null         0         0         0         0  
      15  hru015                  15     542.44896      -5.12917     -79.63814    2576.02882        15              null         0         0         0         0  
      16  hru016                  16     298.28679      -5.13132     -79.63649    2455.33871        16              null         0         0         0         0  
      17  hru017                  17     136.16431      -5.14256     -79.62955    2251.58197        17              null         0         0         0         0  
      18  hru018                  18     295.76674      -5.13777     -79.63179    2351.24528        18              null         0         0         0         0  
      19  hru019                  19      61.38555      -5.14283     -79.63177    2214.90909        19              null         0         0         0         0  
      20  hru020                  20     209.51714      -5.16398     -79.55460    2979.52913        20              null         0         0         0         0  
      21  hru021                  21     122.04882      -5.16813     -79.55501    2960.35000        21              null         0         0         0         0  
      22  hru022                  22     987.28408      -5.17595     -79.57657    2495.61376        22              null         0         0         0         0  
      23  hru023                  23     278.94693      -5.17518     -79.57525    2563.96629        23              null         0         0         0         0  
      24  hru024                  24      10.89458      -5.16294     -79.55381    2928.41667        24              null         0         0         0         0  
      25  hru025                  25      18.15764      -5.17156     -79.55232    2953.25000        25              null         0         0         0         0  
      26  hru026                  26     164.31383      -5.17774     -79.58356    2317.00000        26              null         0         0         0         0  
      27  hru027                  27      72.37633      -5.18225     -79.58884    2294.64865        27              null         0         0         0         0  
      28  hru028                  28      17.51240      -5.16872     -79.55419    2930.95000        28              null         0         0         0         0  
      29  hru029                  29      20.13926      -5.17668     -79.55459    3033.86957        29              null         0         0         0         0  
      30  hru030                  30     114.88136      -5.17684     -79.58576    2302.94309        30              null         0         0         0         0  
      31  hru031                  31      67.24763      -5.17975     -79.57900    2531.13889        31              null         0         0         0         0  
      32  hru032                  32     296.65078      -5.17424     -79.64368    1703.77676        32              null         0         0         0         0  
      33  hru033                  33     213.18940      -5.17834     -79.63664    1711.80000        33              null         0         0         0         0  
      34  hru034                  34      24.64868      -5.19389     -79.65336    1513.76923        34              null         0         0         0         0  
      35  hru035                  35      76.79011      -5.20304     -79.65233    1238.72840        35              null         0         0         0         0  
      36  hru036                  36     195.50991      -5.19022     -79.64132    1311.84422        36              null         0         0         0         0  
      37  hru037                  37     115.93050      -5.18310     -79.64394    1617.77119        37              null         0         0         0         0  
      38  hru038                  38      71.55288      -5.20221     -79.64715    1132.57534        38              null         0         0         0         0  
      39  hru039                  39      10.78194      -5.19705     -79.64562    1198.18182        39              null         0         0         0         0  
      40  hru040                  40      41.16741      -5.19267     -79.65438    1570.26087        40              null         0         0         0         0  
      41  hru041                  41      80.54493      -5.19955     -79.65121    1267.80000        41              null         0         0         0         0  
      42  hru042                  42     164.24463      -5.18302     -79.63826    1548.43353        42              null         0         0         0         0  
      43  hru043                  43     267.72823      -5.18767     -79.62628    1639.47872        43              null         0         0         0         0  
      44  hru044                  44      17.57491      -5.19243     -79.65261    1557.57895        44              null         0         0         0         0  
      45  hru045                  45      54.57473      -5.20243     -79.64987    1189.52542        45              null         0         0         0         0  
      46  hru046                  46     385.33199      -5.18779     -79.63943    1305.36496        46              null         0         0         0         0  
      47  hru047                  47     273.76384      -5.18703     -79.63519    1623.27397        47              null         0         0         0         0  
      48  hru048                  48     124.25429      -5.20093     -79.64945    1182.86111        48              null         0         0         0         0  
      49  hru049                  49      29.33782      -5.19671     -79.65202    1379.47059        49              null         0         0         0         0  
      50  hru050                  50     125.74299      -5.20224     -79.64284    1050.80672        50              null         0         0         0         0  
      51  hru051                  51      66.52446      -5.17786     -79.61210    1850.32432        51              null         0         0         0         0  
      52  hru052                  52      87.20098      -5.17727     -79.61317    1812.05155        52              null         0         0         0         0  
      53  hru053                  53      49.11592      -5.18085     -79.60888    1932.68966        53              null         0         0         0         0  
      54  hru054                  54      83.83580      -5.17828     -79.61196    1844.43434        54              null         0         0         0         0  
      55  hru055                  55      48.27692      -5.18011     -79.61410    1706.90909        55              null         0         0         0         0  
      56  hru056                  56      76.36532      -5.17668     -79.61481    1937.57471        56              null         0         0         0         0  
      57  hru057                  57      31.39138      -5.17662     -79.61530    1855.00000        57              null         0         0         0         0  
      58  hru058                  58      39.23922      -5.18366     -79.60857    1926.26667        58              null         0         0         0         0  
      59  hru059                  59     567.02029      -5.21138     -79.59311    2213.56182        59              null         0         0         0         0  
      60  hru060                  60     825.78774      -5.21367     -79.58633    2350.37828        60              null         0         0         0         0  
      61  hru061                  61     117.05855      -5.21638     -79.55932    3161.27350        61              null         0         0         0         0  
      62  hru062                  62     232.11609      -5.22547     -79.56314    3147.53879        62              null         0         0         0         0  
      63  hru063                  63     517.42912      -5.21832     -79.60720    1770.80517        63              null         0         0         0         0  
      64  hru064                  64     687.16233      -5.21514     -79.60440    1872.60928        64              null         0         0         0         0  
      65  hru065                  65     600.74317      -5.22136     -79.61846    1421.21761        65              null         0         0         0         0  
      66  hru066                  66     424.11271      -5.21614     -79.60777    1752.44471        66              null         0         0         0         0  
      67  hru067                  67     372.10439      -5.23486     -79.75346     605.95090        67              null         0         0         0         0  
      68  hru068                  68     114.41970      -5.21792     -79.75159     899.40336        68              null         0         0         0         0  
      69  hru069                  69      92.30496      -5.25316     -79.76088     313.33333        69              null         0         0         0         0  
      70  hru070                  70     137.49594      -5.25779     -79.76418     262.97203        70              null         0         0         0         0  
      71  hru071                  71    2073.76955      -5.24576     -79.74897     553.39939        71              null         0         0         0         0  
      72  hru072                  72     419.42600      -5.23007     -79.74703     732.92405        72              null         0         0         0         0  
      73  hru073                  73     118.45811      -5.25698     -79.75506     492.21495        73              null         0         0         0         0  
      74  hru074                  74      34.31964      -5.25653     -79.75226     355.58065        74              null         0         0         0         0  
      75  hru075                  75      38.74798      -5.25906     -79.75763     291.37143        75              null         0         0         0         0  
      76  hru076                  76     117.38080      -5.27131     -79.76099     376.68966        76              null         0         0         0         0  
      77  hru077                  77      70.83324      -5.26965     -79.76269     267.30000        77              null         0         0         0         0  
      78  hru078                  78     162.91645      -5.26950     -79.76475     241.75776        78              null         0         0         0         0  
      79  hru079                  79     161.15711      -5.27648     -79.77346     219.04698        79              null         0         0         0         0  
      80  hru080                  80      31.36615      -5.27082     -79.77464     291.62069        80              null         0         0         0         0  
      81  hru081                  81     149.70306      -5.23297     -79.65113     880.13475        81              null         0         0         0         0  
      82  hru082                  82      50.96274      -5.23840     -79.64406    1070.54167        82              null         0         0         0         0  
      83  hru083                  83      11.08994      -5.22645     -79.65560    1011.72727        83              null         0         0         0         0  
      84  hru084                  84      89.72767      -5.22603     -79.65579     880.14607        84              null         0         0         0         0  
      85  hru085                  85      49.47543      -5.22855     -79.65143    1040.96154        85              null         0         0         0         0  
      86  hru086                  86       7.61160      -5.23011     -79.65228    1097.75000        86              null         0         0         0         0  
      87  hru087                  87       8.91985      -5.21726     -79.66150    1172.90000        87              null         0         0         0         0  
      88  hru088                  88       1.78397      -5.21711     -79.66418    1250.50000        88              null         0         0         0         0  
      89  hru089                  89      29.43550      -5.22451     -79.65520     949.24138        89              null         0         0         0         0  
      90  hru090                  90      97.28416      -5.23353     -79.65287     742.52000        90              null         0         0         0         0  
      91  hru091                  91      16.53831      -5.23420     -79.65407     637.88235        91              null         0         0         0         0  
      92  hru092                  92      52.66413      -5.23087     -79.65827     763.42857        92              null         0         0         0         0  
      93  hru093                  93      20.68948      -5.22634     -79.65789     846.09091        93              null         0         0         0         0  
      94  hru094                  94       5.64258      -5.23283     -79.65684     660.16667        94              null         0         0         0         0  
      95  hru095                  95      26.07276      -5.23612     -79.64286    1162.83333        95              null         0         0         0         0  
      96  hru096                  96      76.04555      -5.23071     -79.65177     954.20000        96              null         0         0         0         0  
      97  hru097                  97      53.37398      -5.22506     -79.65693     908.88235        97              null         0         0         0         0  
      98  hru098                  98       6.27929      -5.22645     -79.65821     954.83333        98              null         0         0         0         0  
      99  hru099                  99      43.37080      -5.27369     -79.72928     417.50000        99              null         0         0         0         0  
     100  hru100                 100      33.94236      -5.28033     -79.72998     278.44444       100              null         0         0         0         0  
     101  hru101                 101      43.37080      -5.27583     -79.73050     254.06522       101              null         0         0         0         0  
     102  hru102                 102      12.37934      -5.25566     -79.72198     570.35714       102              null         0         0         0         0  
     103  hru103                 103      55.70701      -5.25266     -79.72148     554.73016       103              null         0         0         0         0  
     104  hru104                 104      11.49510      -5.26027     -79.72099     305.46154       104              null         0         0         0         0  
     105  hru105                 105      84.27327      -5.28354     -79.73601     268.33333       105              null         0         0         0         0  
     106  hru106                 106     309.00199      -5.28828     -79.73838     232.26705       106              null         0         0         0         0  
     107  hru107                 107      68.47203      -5.28105     -79.73393     299.08974       107              null         0         0         0         0  
     108  hru108                 108      40.26332      -5.27533     -79.73846     325.62791       108              null         0         0         0         0  
     109  hru109                 109      26.21797      -5.27720     -79.73673     273.35714       109              null         0         0         0         0  
     110  hru110                 110      26.21797      -5.27860     -79.73585     245.17857       110              null         0         0         0         0  
     111  hru111                 111     249.06294      -5.25216     -79.72319     649.05932       111              null         0         0         0         0  
     112  hru112                 112    2019.94267      -5.26037     -79.71659     599.45402       112              null         0         0         0         0  
     113  hru113                 113     303.94179      -5.25879     -79.72554     536.00398       113              null         0         0         0         0  
     114  hru114                 114      53.28063      -5.26744     -79.72475     355.79545       114              null         0         0         0         0  
     115  hru115                 115      69.39129      -5.23256     -79.79504     800.21622       115              null         0         0         0         0  
     116  hru116                 116     158.47470      -5.24131     -79.79127     526.02959       116              null         0         0         0         0  
     117  hru117                 117      41.25969      -5.24604     -79.79352     340.29545       117              null         0         0         0         0  
     118  hru118                 118      32.82020      -5.26206     -79.79449     245.48571       118              null         0         0         0         0  
     119  hru119                 119    1418.47782      -5.24631     -79.79278     507.46275       119              null         0         0         0         0  
     120  hru120                 120     580.74151      -5.23894     -79.80427     803.18774       120              null         0         0         0         0  
     121  hru121                 121     106.13300      -5.26952     -79.79872     336.64545       121              null         0         0         0         0  
     122  hru122                 122      22.19144      -5.26308     -79.79361     286.91304       122              null         0         0         0         0  
     123  hru123                 123      28.94536      -5.26561     -79.79218     242.26667       123              null         0         0         0         0  
     124  hru124                 124      40.40336      -5.26726     -79.79412     307.87179       124              null         0         0         0         0  
     125  hru125                 125     114.99418      -5.27220     -79.79317     218.12613       125              null         0         0         0         0  
     126  hru126                 126      83.43765      -5.27742     -79.78907     209.01220       126              null         0         0         0         0  
     127  hru127                 127      10.17532      -5.27531     -79.78480     252.90000       127              null         0         0         0         0  
     128  hru128                 128      42.47414      -5.26768     -79.79603     254.69767       128              null         0         0         0         0  
     129  hru129                 129      41.48637      -5.26432     -79.79864     299.97619       129              null         0         0         0         0  
     130  hru130                 130      61.24179      -5.26989     -79.79364     224.69355       130              null         0         0         0         0  
     131  hru131                 131      21.79792      -5.26182     -79.79787     289.80952       131              null         0         0         0         0  
     132  hru132                 132      51.89982      -5.26235     -79.80269     375.32000       132              null         0         0         0         0  
     133  hru133                 133      48.78583      -5.26088     -79.79142     242.63830       133              null         0         0         0         0  
     134  hru134                 134      10.38426      -5.26792     -79.79529     244.60000       134              null         0         0         0         0  
     135  hru135                 135      30.11434      -5.27461     -79.78961     215.41379       135              null         0         0         0         0  
     136  hru136                 136      23.96962      -5.24217     -79.66446     968.45833       136              null         0         0         0         0  
     137  hru137                 137     119.84810      -5.25030     -79.66726     647.58333       137              null         0         0         0         0  
     138  hru138                 138      45.63754      -5.24441     -79.66359     821.16279       138              null         0         0         0         0  
     139  hru139                 139      27.59479      -5.23549     -79.66576     900.15385       139              null         0         0         0         0  
     140  hru140                 140      36.44176      -5.25009     -79.66159     754.51351       140              null         0         0         0         0  
     141  hru141                 141       5.90947      -5.25183     -79.66194     799.83333       141              null         0         0         0         0  
     142  hru142                 142       2.77919      -5.23163     -79.66604     939.33333       142              null         0         0         0         0  
     143  hru143                 143      10.19037      -5.24579     -79.66744     601.00000       143              null         0         0         0         0  
     144  hru144                 144       6.48478      -5.25346     -79.67141     465.85714       144              null         0         0         0         0  
     145  hru145                 145       6.48478      -5.25288     -79.67315     421.00000       145              null         0         0         0         0  
     146  hru146                 146       1.85279      -5.23950     -79.67022     757.00000       146              null         0         0         0         0  
     147  hru147                 147       5.55838      -5.24438     -79.66534     739.50000       147              null         0         0         0         0  
     148  hru148                 148       2.77919      -5.25170     -79.66302     795.66667       148              null         0         0         0         0  
     149  hru149                 149       2.77919      -5.25824     -79.67519     424.33333       149              null         0         0         0         0  
     150  hru150                 150      19.99067      -5.25291     -79.65972     859.80000       150              null         0         0         0         0  
     151  hru151                 151      11.99440      -5.25013     -79.66133     818.00000       151              null         0         0         0         0  
     152  hru152                 152       5.99720      -5.25443     -79.67073     477.83333       152              null         0         0         0         0  
     153  hru153                 153      12.57419      -5.24229     -79.67027     664.57143       153              null         0         0         0         0  
     154  hru154                 154       6.28709      -5.24403     -79.66493     732.85714       154              null         0         0         0         0  
     155  hru155                 155      17.06497      -5.24627     -79.66805     626.73684       155              null         0         0         0         0  
     156  hru156                 156       8.55387      -5.22973     -79.66740     972.10000       156              null         0         0         0         0  
     157  hru157                 157       5.13232      -5.24004     -79.66806     769.33333       157              null         0         0         0         0  
     158  hru158                 158       1.71077      -5.25413     -79.65882     620.00000       158              null         0         0         0         0  
     159  hru159                 159       4.49078      -5.23819     -79.66690     675.60000       159              null         0         0         0         0  
     160  hru160                 160       3.59262      -5.23725     -79.66454     678.25000       160              null         0         0         0         0  
     161  hru161                 161       9.87972      -5.24246     -79.66730     609.72727       161              null         0         0         0         0  
     162  hru162                 162      45.87233      -5.25179     -79.66143     622.58537       162              null         0         0         0         0  
     163  hru163                 163      11.18837      -5.25408     -79.67319     431.70000       163              null         0         0         0         0  
     164  hru164                 164      29.08977      -5.25445     -79.66163     600.57692       164              null         0         0         0         0  
     165  hru165                 165       7.83186      -5.24402     -79.66261     645.85714       165              null         0         0         0         0  
     166  hru166                 166      33.56512      -5.25037     -79.66243     603.73333       166              null         0         0         0         0  
     167  hru167                 167       8.95070      -5.24693     -79.66777     455.37500       167              null         0         0         0         0  
     168  hru168                 168      25.73326      -5.25322     -79.66142     602.26087       168              null         0         0         0         0  
     169  hru169                 169     357.98886      -5.25429     -79.60681    1787.34188       169              null         0         0         0         0  
     170  hru170                 170     524.23440      -5.25864     -79.59939    2109.35019       170              null         0         0         0         0  
     171  hru171                 171     265.95774      -5.25627     -79.56817    3274.79339       171              null         0         0         0         0  
     172  hru172                 172     164.84984      -5.25646     -79.57097    3195.80667       172              null         0         0         0         0  
     173  hru173                 173      97.45625      -5.25052     -79.57356    3042.97938       173              null         0         0         0         0  
     174  hru174                 174      71.33396      -5.25072     -79.57382    3005.59155       174              null         0         0         0         0  
     175  hru175                 175    1066.93338      -5.25768     -79.60903    1846.91531       175              null         0         0         0         0  
     176  hru176                 176     662.63398      -5.25626     -79.61432    1581.32867       176              null         0         0         0         0  
     177  hru177                 177     625.19300      -5.26190     -79.62144    1432.64182       177              null         0         0         0         0  
     178  hru178                 178     769.07859      -5.25943     -79.60868    1845.07115       178              null         0         0         0         0  
     179  hru179                 179      62.41778      -5.26443     -79.67526     712.00000       179              null         0         0         0         0  
     180  hru180                 180      33.43810      -5.26278     -79.68108     741.70000       180              null         0         0         0         0  
     181  hru181                 181     237.91441      -5.26689     -79.67003     593.23009       181              null         0         0         0         0  
     182  hru182                 182      40.00331      -5.26606     -79.67871     742.52632       182              null         0         0         0         0  