initial.cha: written by SWAT+ editor v3.0.4 on 2024-11-12 23:04 for SWAT+ rev.61.0.1
name                       org_min              pest              path              hmet              salt  description       
initcha1                   no_init              null              null              null              null  null              
