ls_unit.def: written by SWAT+ editor v3.0.4 on 2024-11-12 23:05 for SWAT+ rev.61.0.1
65
      id              name          area  elem_tot  elements  
       1            rtu010     481.95000         2        51       -58  
       2            rtu020    2083.32000         2        20       -31  
       3            rtu030    3244.05000         2        14       -19  
       4            rtu040    5307.12000         2         1        -5  
       5            rtu050    3333.15000         2       378      -395  
       6            rtu060     642.33000         2       311      -328  
       7            rtu070       4.05000         2       352      -354  
       8            rtu080     407.43000         2       329      -351  
       9            rtu090    6161.67000         2       404      -417  
      10            rtu100    2992.14000         2       590      -608  
      11            rtu110    3065.04000         2       242      -260  
      12            rtu120    2472.12000         2       261      -273  
      13            rtu130    1437.75000         2       274      -291  
      14            rtu140    4963.68000         2       198      -214  
      15            rtu150     711.99000         2       179      -197  
      16            rtu160     567.81000         2       136      -168  
      17            rtu170     753.30000         2        81       -98  
      18            rtu180    3717.09000         2       292      -305  
      19            rtu190    2569.32000         2        32       -50  
      20            rtu200   10240.83000         2         6       -13  
      21            rtu210    3971.43000         2        59       -66  
      22            rtu220    1040.85000         2       215      -232  
      23            rtu230    2279.34000         2       355      -377  
      24            rtu240    3363.93000         2       306      -310  
      25            rtu250    6732.72000         2       233      -241  
      26            rtu260    3380.94000         2        99      -114  
      27            rtu270    3015.63000         2       115      -135  
      28            rtu280    4605.66000         2       169      -178  
      29            rtu290    3944.70000         2        67       -80  
      30            rtu300    3373.65000         2       487      -504  
      31            rtu310     149.85000         2       505      -514  
      32            rtu320     771.93000         2       515      -536  
      33            rtu330    3802.14000         2       537      -555  
      34            rtu340    1816.83000         2       611      -625  
      35            rtu350     829.44000         2       629      -643  
      36            rtu360    7227.63000         2       556      -559  
      37            rtu370    9038.79000         2       644      -649  
      38            rtu380    3743.01000         2       650      -664  
      39            rtu390    4931.28000         2       454      -467  
      40            rtu400    1357.56000         2       481      -486  
      41            rtu410   12706.47000         2       468      -480  
      42            rtu420    2950.02000         2       626      -628  
      43            rtu430    3102.30000         2       447      -453  
      44            rtu440    2016.09000         2       445      -446  
      45            rtu450    3103.11000         2       418      -444  
      46            rtu460    2139.21000         2       609      -610  
      47            rtu470    6385.23000         2       396      -403  
      48            rtu480     660.15000         2       569      -589  
      49            rtu490    2318.22000         2       720      -739  
      50            rtu500    3155.76000         2       745      -761  
      51            rtu510    5210.73000         2       762      -776  
      52            rtu520    3666.87000         2       791      -799  
      53            rtu530    4347.27000         2       687      -694  
      54            rtu540    1543.05000         2       673      -682  
      55            rtu550     724.14000         2       695      -698  
      56            rtu560    1997.46000         2       740      -744  
      57            rtu570    3647.43000         2       705      -719  
      58            rtu580    4925.61000         2       699      -704  
      59            rtu590    5748.57000         2       683      -686  
      60            rtu600    2810.70000         2       560      -568  
      61            rtu610    6897.96000         2       665      -672  
      62            rtu620    1550.34000         2       808      -819  
      63            rtu630    3410.91000         2       820      -837  
      64            rtu640    5836.05000         2       800      -807  
      65            rtu650    2237.22000         2       777      -790  
