ls_unit.ele: written by SWAT+ editor v3.0.4 on 2024-11-12 23:05 for SWAT+ rev.61.0.1
      id  name                   obj_typ  obj_typ_no      bsn_frac      sub_frac      reg_frac  
       1  hru001                     hru           1     5.8677E-3       0.24061       0.00000  
       2  hru002                     hru           2     1.0084E-3       0.04135       0.00000  
       3  hru003                     hru           3     1.2364E-3       0.05070       0.00000  
       4  hru004                     hru           4     1.3995E-2       0.57388       0.00000  
       5  hru005                     hru           5     2.2793E-3       0.09346       0.00000  
       6  hru006                     hru           6     5.2038E-3       0.11058       0.00000  
       7  hru007                     hru           7     5.7097E-3       0.12134       0.00000  
       8  hru008                     hru           8     5.3179E-3       0.11301       0.00000  
       9  hru009                     hru           9     1.0209E-2       0.21694       0.00000  
      10  hru010                     hru          10     8.5073E-4       0.01808       0.00000  
      11  hru011                     hru          11     1.4875E-3       0.03161       0.00000  
      12  hru012                     hru          12     8.8277E-3       0.18759       0.00000  
      13  hru013                     hru          13     9.4513E-3       0.20085       0.00000  
      14  hru014                     hru          14     8.7766E-3       0.58877       0.00000  
      15  hru015                     hru          15     2.4926E-3       0.16721       0.00000  
      16  hru016                     hru          16     1.3707E-3       0.09195       0.00000  
      17  hru017                     hru          17     6.2569E-4       0.04197       0.00000  
      18  hru018                     hru          18     1.3591E-3       0.09117       0.00000  
      19  hru019                     hru          19     2.8207E-4       0.01892       0.00000  
      20  hru020                     hru          20     9.6275E-4       0.10057       0.00000  
      21  hru021                     hru          21     5.6082E-4       0.05858       0.00000  
      22  hru022                     hru          22     4.5366E-3       0.47390       0.00000  
      23  hru023                     hru          23     1.2818E-3       0.13390       0.00000  
      24  hru024                     hru          24     5.0061E-5       0.00523       0.00000  
      25  hru025                     hru          25     8.3436E-5       0.00872       0.00000  
      26  hru026                     hru          26     7.5503E-4       0.07887       0.00000  
      27  hru027                     hru          27     3.3257E-4       0.03474       0.00000  
      28  hru028                     hru          28     8.0471E-5       0.00841       0.00000  
      29  hru029                     hru          29     9.2541E-5       0.00967       0.00000  
      30  hru030                     hru          30     5.2789E-4       0.05514       0.00000  
      31  hru031                     hru          31     3.0901E-4       0.03228       0.00000  
      32  hru032                     hru          32     1.3631E-3       0.11546       0.00000  
      33  hru033                     hru          33     9.7962E-4       0.08298       0.00000  
      34  hru034                     hru          34     1.1326E-4       0.00959       0.00000  
      35  hru035                     hru          35     3.5286E-4       0.02989       0.00000  
      36  hru036                     hru          36     8.9838E-4       0.07609       0.00000  
      37  hru037                     hru          37     5.3271E-4       0.04512       0.00000  
      38  hru038                     hru          38     3.2879E-4       0.02785       0.00000  
      39  hru039                     hru          39     4.9544E-5       0.00420       0.00000  
      40  hru040                     hru          40     1.8917E-4       0.01602       0.00000  
      41  hru041                     hru          41     3.7011E-4       0.03135       0.00000  
      42  hru042                     hru          42     7.5472E-4       0.06393       0.00000  
      43  hru043                     hru          43     1.2302E-3       0.10420       0.00000  
      44  hru044                     hru          44     8.0758E-5       0.00684       0.00000  
      45  hru045                     hru          45     2.5077E-4       0.02124       0.00000  
      46  hru046                     hru          46     1.7706E-3       0.14997       0.00000  
      47  hru047                     hru          47     1.2580E-3       0.10655       0.00000  
      48  hru048                     hru          48     5.7096E-4       0.04836       0.00000  
      49  hru049                     hru          49     1.3481E-4       0.01142       0.00000  
      50  hru050                     hru          50     5.7780E-4       0.04894       0.00000  
      51  hru051                     hru          51     3.0568E-4       0.13803       0.00000  
      52  hru052                     hru          52     4.0069E-4       0.18093       0.00000  
      53  hru053                     hru          53     2.2569E-4       0.10191       0.00000  
      54  hru054                     hru          54     3.8523E-4       0.17395       0.00000  
      55  hru055                     hru          55     2.2184E-4       0.10017       0.00000  
      56  hru056                     hru          56     3.5090E-4       0.15845       0.00000  
      57  hru057                     hru          57     1.4425E-4       0.06513       0.00000  
      58  hru058                     hru          58     1.8031E-4       0.08142       0.00000  
      59  hru059                     hru          59     2.6055E-3       0.14277       0.00000  
      60  hru060                     hru          60     3.7946E-3       0.20793       0.00000  
      61  hru061                     hru          61     5.3789E-4       0.02948       0.00000  
      62  hru062                     hru          62     1.0666E-3       0.05845       0.00000  
      63  hru063                     hru          63     2.3776E-3       0.13029       0.00000  
      64  hru064                     hru          64     3.1576E-3       0.17303       0.00000  
      65  hru065                     hru          65     2.7605E-3       0.15127       0.00000  
      66  hru066                     hru          66     1.9488E-3       0.10679       0.00000  
      67  hru067                     hru          67     1.7098E-3       0.09433       0.00000  
      68  hru068                     hru          68     5.2577E-4       0.02901       0.00000  
      69  hru069                     hru          69     4.2415E-4       0.02340       0.00000  
      70  hru070                     hru          70     6.3180E-4       0.03486       0.00000  
      71  hru071                     hru          71     9.5291E-3       0.52571       0.00000  
      72  hru072                     hru          72     1.9273E-3       0.10633       0.00000  
      73  hru073                     hru          73     5.4432E-4       0.03003       0.00000  
      74  hru074                     hru          74     1.5770E-4       0.00870       0.00000  
      75  hru075                     hru          75     1.7805E-4       0.00982       0.00000  
      76  hru076                     hru          76     5.3937E-4       0.02976       0.00000  
      77  hru077                     hru          77     3.2548E-4       0.01796       0.00000  
      78  hru078                     hru          78     7.4861E-4       0.04130       0.00000  
      79  hru079                     hru          79     7.4053E-4       0.04085       0.00000  
      80  hru080                     hru          80     1.4413E-4       0.00795       0.00000  
      81  hru081                     hru          81     6.8790E-4       0.19873       0.00000  
      82  hru082                     hru          82     2.3418E-4       0.06765       0.00000  
      83  hru083                     hru          83     5.0959E-5       0.01472       0.00000  
      84  hru084                     hru          84     4.1231E-4       0.11911       0.00000  
      85  hru085                     hru          85     2.2734E-4       0.06568       0.00000  
      86  hru086                     hru          86     3.4976E-5       0.01010       0.00000  
      87  hru087                     hru          87     4.0987E-5       0.01184       0.00000  
      88  hru088                     hru          88     8.1975E-6       0.00237       0.00000  
      89  hru089                     hru          89     1.3526E-4       0.03908       0.00000  
      90  hru090                     hru          90     4.4703E-4       0.12914       0.00000  
      91  hru091                     hru          91     7.5995E-5       0.02195       0.00000  
      92  hru092                     hru          92     2.4200E-4       0.06991       0.00000  
      93  hru093                     hru          93     9.5070E-5       0.02747       0.00000  
      94  hru094                     hru          94     2.5928E-5       0.00749       0.00000  
      95  hru095                     hru          95     1.1981E-4       0.03461       0.00000  
      96  hru096                     hru          96     3.4943E-4       0.10095       0.00000  
      97  hru097                     hru          97     2.4526E-4       0.07085       0.00000  
      98  hru098                     hru          98     2.8854E-5       0.00834       0.00000  
      99  hru099                     hru          99     1.9929E-4       0.01283       0.00000  
     100  hru100                     hru         100     1.5597E-4       0.01004       0.00000  
     101  hru101                     hru         101     1.9929E-4       0.01283       0.00000  
     102  hru102                     hru         102     5.6884E-5       0.00366       0.00000  
     103  hru103                     hru         103     2.5598E-4       0.01648       0.00000  
     104  hru104                     hru         104     5.2821E-5       0.00340       0.00000  
     105  hru105                     hru         105     3.8724E-4       0.02493       0.00000  
     106  hru106                     hru         106     1.4199E-3       0.09140       0.00000  
     107  hru107                     hru         107     3.1463E-4       0.02025       0.00000  
     108  hru108                     hru         108     1.8501E-4       0.01191       0.00000  
     109  hru109                     hru         109     1.2047E-4       0.00775       0.00000  
     110  hru110                     hru         110     1.2047E-4       0.00775       0.00000  
     111  hru111                     hru         111     1.1445E-3       0.07367       0.00000  
     112  hru112                     hru         112     9.2818E-3       0.59745       0.00000  
     113  hru113                     hru         113     1.3966E-3       0.08990       0.00000  
     114  hru114                     hru         114     2.4483E-4       0.01576       0.00000  
     115  hru115                     hru         115     3.1886E-4       0.02301       0.00000  
     116  hru116                     hru         116     7.2820E-4       0.05255       0.00000  
     117  hru117                     hru         117     1.8959E-4       0.01368       0.00000  
     118  hru118                     hru         118     1.5081E-4       0.01088       0.00000  
     119  hru119                     hru         119     6.5180E-3       0.47038       0.00000  
     120  hru120                     hru         120     2.6686E-3       0.19258       0.00000  
     121  hru121                     hru         121     4.8769E-4       0.03519       0.00000  
     122  hru122                     hru         122     1.0197E-4       0.00736       0.00000  
     123  hru123                     hru         123     1.3301E-4       0.00960       0.00000  
     124  hru124                     hru         124     1.8566E-4       0.01340       0.00000  
     125  hru125                     hru         125     5.2841E-4       0.03813       0.00000  
     126  hru126                     hru         126     3.8340E-4       0.02767       0.00000  
     127  hru127                     hru         127     4.6756E-5       0.00337       0.00000  
     128  hru128                     hru         128     1.9517E-4       0.01408       0.00000  
     129  hru129                     hru         129     1.9063E-4       0.01376       0.00000  
     130  hru130                     hru         130     2.8141E-4       0.02031       0.00000  
     131  hru131                     hru         131     1.0016E-4       0.00723       0.00000  
     132  hru132                     hru         132     2.3848E-4       0.01721       0.00000  
     133  hru133                     hru         133     2.2417E-4       0.01618       0.00000  
     134  hru134                     hru         134     4.7716E-5       0.00344       0.00000  
     135  hru135                     hru         135     1.3838E-4       0.00999       0.00000  
     136  hru136                     hru         136     1.1014E-4       0.04221       0.00000  
     137  hru137                     hru         137     5.5071E-4       0.21107       0.00000  
     138  hru138                     hru         138     2.0971E-4       0.08037       0.00000  
     139  hru139                     hru         139     1.2680E-4       0.04860       0.00000  
     140  hru140                     hru         140     1.6745E-4       0.06418       0.00000  
     141  hru141                     hru         141     2.7154E-5       0.01041       0.00000  
     142  hru142                     hru         142     1.2771E-5       0.00489       0.00000  
     143  hru143                     hru         143     4.6825E-5       0.01795       0.00000  
     144  hru144                     hru         144     2.9798E-5       0.01142       0.00000  
     145  hru145                     hru         145     2.9798E-5       0.01142       0.00000  
     146  hru146                     hru         146     8.5137E-6       0.00326       0.00000  
     147  hru147                     hru         147     2.5541E-5       0.00979       0.00000  
     148  hru148                     hru         148     1.2771E-5       0.00489       0.00000  
     149  hru149                     hru         149     1.2771E-5       0.00489       0.00000  
     150  hru150                     hru         150     9.1859E-5       0.03521       0.00000  
     151  hru151                     hru         151     5.5115E-5       0.02112       0.00000  
     152  hru152                     hru         152     2.7558E-5       0.01056       0.00000  
     153  hru153                     hru         153     5.7779E-5       0.02215       0.00000  
     154  hru154                     hru         154     2.8890E-5       0.01107       0.00000  
     155  hru155                     hru         155     7.8415E-5       0.03005       0.00000  
     156  hru156                     hru         156     3.9306E-5       0.01506       0.00000  
     157  hru157                     hru         157     2.3583E-5       0.00904       0.00000  
     158  hru158                     hru         158     7.8611E-6       0.00301       0.00000  
     159  hru159                     hru         159     2.0635E-5       0.00791       0.00000  
     160  hru160                     hru         160     1.6508E-5       0.00633       0.00000  
     161  hru161                     hru         161     4.5398E-5       0.01740       0.00000  
     162  hru162                     hru         162     2.1079E-4       0.08079       0.00000  
     163  hru163                     hru         163     5.1411E-5       0.01970       0.00000  
     164  hru164                     hru         164     1.3367E-4       0.05123       0.00000  
     165  hru165                     hru         165     3.5988E-5       0.01379       0.00000  
     166  hru166                     hru         166     1.5423E-4       0.05911       0.00000  
     167  hru167                     hru         167     4.1129E-5       0.01576       0.00000  
     168  hru168                     hru         168     1.1825E-4       0.04532       0.00000  
     169  hru169                     hru         169     1.6450E-3       0.07773       0.00000  
     170  hru170                     hru         170     2.4089E-3       0.11382       0.00000  
     171  hru171                     hru         171     1.2221E-3       0.05775       0.00000  
     172  hru172                     hru         172     7.5750E-4       0.03579       0.00000  
     173  hru173                     hru         173     4.4782E-4       0.02116       0.00000  
     174  hru174                     hru         174     3.2778E-4       0.01549       0.00000  
     175  hru175                     hru         175     4.9026E-3       0.23166       0.00000  
     176  hru176                     hru         176     3.0449E-3       0.14387       0.00000  
     177  hru177                     hru         177     2.8728E-3       0.13574       0.00000  
     178  hru178                     hru         178     3.5340E-3       0.16699       0.00000  
     179  hru179                     hru         179     2.8681E-4       0.08767       0.00000  
     180  hru180                     hru         180     1.5365E-4       0.04696       0.00000  
     181  hru181                     hru         181     1.0932E-3       0.33415       0.00000  
     182  hru182                     hru         182     1.8382E-4       0.05619       0.00000  
     183  hru183                     hru         183     1.6447E-4       0.05027       0.00000  
     184  hru184                     hru         184     6.4149E-5       0.01961       0.00000  
     185  hru185                     hru         185     2.0725E-4       0.06335       0.00000  
     186  hru186                     hru         186     9.8733E-5       0.03018       0.00000  
     187  hru187                     hru         187     3.0140E-4       0.09212       0.00000  
     188  hru188                     hru         188     1.5324E-4       0.04684       0.00000  
     189  hru189                     hru         189     1.3209E-4       0.04038       0.00000  
     190  hru190                     hru         190     2.5403E-5       0.00776       0.00000  
     191  hru191                     hru         191     1.4351E-4       0.04387       0.00000  
     192  hru192                     hru         192     6.0184E-5       0.01840       0.00000  
     193  hru193                     hru         193     3.7036E-5       0.01132       0.00000  
     194  hru194                     hru         194     1.8518E-5       0.00566       0.00000  
     195  hru195                     hru         195     3.3452E-5       0.01022       0.00000  
     196  hru196                     hru         196     9.0798E-5       0.02775       0.00000  
     197  hru197                     hru         197     2.3894E-5       0.00730       0.00000  
     198  hru198                     hru         198     1.4300E-3       0.06270       0.00000  
     199  hru199                     hru         199     8.5500E-3       0.37486       0.00000  
     200  hru200                     hru         200     1.2790E-3       0.05607       0.00000  
     201  hru201                     hru         201     1.5595E-3       0.06838       0.00000  
     202  hru202                     hru         202     4.1041E-4       0.01799       0.00000  
     203  hru203                     hru         203     3.2319E-4       0.01417       0.00000  
     204  hru204                     hru         204     3.3084E-3       0.14505       0.00000  
     205  hru205                     hru         205     6.5504E-4       0.02872       0.00000  
     206  hru206                     hru         206     7.0505E-4       0.03091       0.00000  
     207  hru207                     hru         207     2.1834E-4       0.00957       0.00000  
     208  hru208                     hru         208     2.0924E-4       0.00917       0.00000  
     209  hru209                     hru         209     7.3675E-4       0.03230       0.00000  
     210  hru210                     hru         210     5.3703E-4       0.02355       0.00000  
     211  hru211                     hru         211     8.4771E-4       0.03717       0.00000  
     212  hru212                     hru         212     7.5459E-4       0.03308       0.00000  
     213  hru213                     hru         213     9.3993E-4       0.04121       0.00000  
     214  hru214                     hru         214     3.4420E-4       0.01509       0.00000  
     215  hru215                     hru         215     3.5935E-4       0.07513       0.00000  
     216  hru216                     hru         216     1.4955E-3       0.31269       0.00000  
     217  hru217                     hru         217     1.6076E-4       0.03361       0.00000  
     218  hru218                     hru         218     6.9519E-5       0.01454       0.00000  
     219  hru219                     hru         219     1.4773E-4       0.03089       0.00000  
     220  hru220                     hru         220     3.3979E-5       0.00710       0.00000  
     221  hru221                     hru         221     4.6721E-5       0.00977       0.00000  
     222  hru222                     hru         222     9.3441E-5       0.01954       0.00000  
     223  hru223                     hru         223     9.2624E-5       0.01937       0.00000  
     224  hru224                     hru         224     2.2053E-5       0.00461       0.00000  
     225  hru225                     hru         225     6.1784E-4       0.12918       0.00000  
     226  hru226                     hru         226     1.2684E-4       0.02652       0.00000  
     227  hru227                     hru         227     2.8641E-4       0.05988       0.00000  
     228  hru228                     hru         228     3.2881E-4       0.06875       0.00000  
     229  hru229                     hru         229     5.2772E-5       0.01103       0.00000  
     230  hru230                     hru         230     1.1366E-4       0.02377       0.00000  
     231  hru231                     hru         231     5.0765E-4       0.10614       0.00000  
     232  hru232                     hru         232     2.2711E-4       0.04748       0.00000  
     233  hru233                     hru         233     6.4308E-3       0.20787       0.00000  
     234  hru234                     hru         234     4.1798E-3       0.13510       0.00000  
     235  hru235                     hru         235     6.2054E-3       0.20058       0.00000  
     236  hru236                     hru         236     6.9959E-3       0.22613       0.00000  
     237  hru237                     hru         237     3.5658E-3       0.11526       0.00000  
     238  hru238                     hru         238     2.1692E-3       0.07012       0.00000  
     239  hru239                     hru         239     7.0050E-4       0.02264       0.00000  
     240  hru240                     hru         240     5.3196E-4       0.01719       0.00000  
     241  hru241                     hru         241     1.5801E-4       0.00511       0.00000  
     242  hru242                     hru         242     3.6587E-4       0.02598       0.00000  
     243  hru243                     hru         243     1.4744E-3       0.10468       0.00000  
     244  hru244                     hru         244     4.8600E-4       0.03451       0.00000  
     245  hru245                     hru         245     1.4100E-3       0.10011       0.00000  
     246  hru246                     hru         246     1.9648E-3       0.13950       0.00000  
     247  hru247                     hru         247     5.8536E-4       0.04156       0.00000  
     248  hru248                     hru         248     5.4627E-4       0.03879       0.00000  
     249  hru249                     hru         249     8.3912E-4       0.05958       0.00000  
     250  hru250                     hru         250     1.4674E-3       0.10419       0.00000  
     251  hru251                     hru         251     7.5495E-4       0.05360       0.00000  
     252  hru252                     hru         252     8.4403E-4       0.05993       0.00000  
     253  hru253                     hru         253     6.0220E-4       0.04276       0.00000  
     254  hru254                     hru         254     2.2760E-4       0.01616       0.00000  
     255  hru255                     hru         255     3.9841E-4       0.02829       0.00000  
     256  hru256                     hru         256     2.4007E-4       0.01705       0.00000  
     257  hru257                     hru         257     3.0136E-4       0.02140       0.00000  
     258  hru258                     hru         258     4.9385E-4       0.03506       0.00000  
     259  hru259                     hru         259     3.4420E-4       0.02444       0.00000  
     260  hru260                     hru         260     7.3829E-4       0.05242       0.00000  
     261  hru261                     hru         261     2.4014E-3       0.21140       0.00000  
     262  hru262                     hru         262     1.4829E-3       0.13054       0.00000  
     263  hru263                     hru         263     5.7544E-4       0.05066       0.00000  
     264  hru264                     hru         264     6.4455E-4       0.05674       0.00000  
     265  hru265                     hru         265     1.5558E-4       0.01370       0.00000  
     266  hru266                     hru         266     3.6673E-4       0.03228       0.00000  
     267  hru267                     hru         267     1.2271E-3       0.10803       0.00000  
     268  hru268                     hru         268     6.4896E-4       0.05713       0.00000  
     269  hru269                     hru         269     9.9163E-4       0.08729       0.00000  
     270  hru270                     hru         270     8.5825E-4       0.07555       0.00000  
     271  hru271                     hru         271     2.8447E-4       0.02504       0.00000  
     272  hru272                     hru         272     8.5868E-4       0.07559       0.00000  
     273  hru273                     hru         273     8.6394E-4       0.07605       0.00000  
     274  hru274                     hru         274     1.4550E-3       0.22024       0.00000  
     275  hru275                     hru         275     7.1236E-4       0.10783       0.00000  
     276  hru276                     hru         276     3.2950E-4       0.04988       0.00000  
     277  hru277                     hru         277     1.6214E-4       0.02454       0.00000  
     278  hru278                     hru         278     6.7993E-5       0.01029       0.00000  
     279  hru279                     hru         279     2.8327E-4       0.04288       0.00000  
     280  hru280                     hru         280     1.3115E-4       0.01985       0.00000  
     281  hru281                     hru         281     8.3933E-5       0.01270       0.00000  
     282  hru282                     hru         282     2.8272E-4       0.04279       0.00000  
     283  hru283                     hru         283     1.2938E-4       0.01958       0.00000  
     284  hru284                     hru         284     3.7856E-4       0.05730       0.00000  
     285  hru285                     hru         285     9.5837E-5       0.01451       0.00000  
     286  hru286                     hru         286     3.0932E-4       0.04682       0.00000  
     287  hru287                     hru         287     2.2950E-4       0.03474       0.00000  
     288  hru288                     hru         288     6.7352E-4       0.10195       0.00000  
     289  hru289                     hru         289     4.5752E-4       0.06925       0.00000  
     290  hru290                     hru         290     6.0574E-4       0.09169       0.00000  
     291  hru291                     hru         291     2.1910E-4       0.03316       0.00000  
     292  hru292                     hru         292     4.9823E-4       0.02917       0.00000  
     293  hru293                     hru         293     3.0761E-4       0.01801       0.00000  
     294  hru294                     hru         294     4.4625E-4       0.02613       0.00000  
     295  hru295                     hru         295     1.9725E-4       0.01155       0.00000  
     296  hru296                     hru         296     1.3028E-3       0.07627       0.00000  
     297  hru297                     hru         297     3.4610E-4       0.02026       0.00000  
     298  hru298                     hru         298     1.0019E-4       0.00587       0.00000  
     299  hru299                     hru         299     1.7566E-3       0.10284       0.00000  
     300  hru300                     hru         300     6.0552E-3       0.35452       0.00000  
     301  hru301                     hru         301     2.6251E-3       0.15369       0.00000  
     302  hru302                     hru         302     4.7796E-4       0.02798       0.00000  
     303  hru303                     hru         303     1.8469E-3       0.10813       0.00000  
     304  hru304                     hru         304     3.6195E-4       0.02119       0.00000  
     305  hru305                     hru         305     7.5826E-4       0.04439       0.00000  
     306  hru306                     hru         306     6.5642E-3       0.42466       0.00000  
     307  hru307                     hru         307     4.1283E-3       0.26708       0.00000  