object.cnt: written by SWAT+ editor v3.0.4 on 2024-11-12 23:04 for SWAT+ rev.61.0.1
name                   ls_area      tot_area       obj       hru      lhru       rtu      gwfl       aqu       cha       res       rec      exco       dlr       can       pmp       out      lcha     aqu2d       hrd       wro  
SWATPLUS_CUENCAPIURA  217624.32000  217624.32000       975       837         0        65         0         8         0         0         0         0         0         0         0         0        65         0         0         0  
