pcp.cli: Precipitation file names - file written by SWAT+ editor 2024-11-12 22:47:50.384941
filename
chalacopcp.pcp
