plant.ini: written by SWAT+ editor v3.0.4 on 2024-11-12 23:05 for SWAT+ rev.61.0.1
pcom_name          plt_cnt  rot_yr_ini          plt_name     lc_status      lai_init       bm_init      phu_init      plnt_pop      yrs_init      rsd_init  
past_comm                1         1  
                                        past             y       0.00000   20000.00000       0.00000       0.00000       1.00000   10000.00000  
frst_comm                1         1  
                                        frst             y       2.00000   50000.00000       0.00000       0.00000       1.00000   10000.00000  
frse_comm                1         1  
                                        frse             y       2.00000   50000.00000       0.00000       0.00000       1.00000   10000.00000  
shrb_comm                1         1  
                                        shrb             n       0.00000       0.00000       0.00000       0.00000       0.00000   10000.00000  
rngb_comm                1         1  
                                        rngb             y       2.00000   50000.00000       0.00000       0.00000       1.00000   10000.00000  
agrl_comm                1         1  
                                        agrl             n       0.00000       0.00000       0.00000       0.00000       0.00000   10000.00000  
