rout_unit.con: written by SWAT+ editor v3.0.4 on 2024-11-12 23:04 for SWAT+ rev.61.0.1
      id  name                gis_id          area           lat           lon          elev       rtu               wst       cst      ovfl      rule   out_tot       obj_typ    obj_id       hyd_typ          frac  
       1  rtu010                  10     481.95000      -5.17881     -79.61225    1850.24706         1              null         0         0         0         2           sdc         1           tot       1.00000           aqu         1           rhg       1.00000  
       2  rtu020                  20    2083.32000      -5.17397     -79.57355    2562.74689         2              null         0         0         0         2           sdc         2           tot       1.00000           aqu         1           rhg       1.00000  
       3  rtu030                  30    3244.05000      -5.13118     -79.63688    2503.85218         3              null         0         0         0         2           sdc         3           tot       1.00000           aqu         1           rhg       1.00000  
       4  rtu040                  40    5307.12000      -5.12920     -79.58553    2575.53877         4              null         0         0         0         2           sdc         4           tot       1.00000           aqu         1           rhg       1.00000  
       5  rtu050                  50    3333.15000      -5.30820     -79.93905     279.07193         5              null         0         0         0         2           sdc         5           tot       1.00000           aqu         3           rhg       1.00000  
       6  rtu060                  60     642.33000      -5.32266     -79.90673     209.12484         6              null         0         0         0         2           sdc         6           tot       1.00000           aqu         2           rhg       1.00000  
       7  rtu070                  70       4.05000      -5.32574     -79.89394     139.80000         7              null         0         0         0         2           sdc         7           tot       1.00000           aqu         2           rhg       1.00000  
       8  rtu080                  80     407.43000      -5.32263     -79.87422     214.82306         8              null         0         0         0         2           sdc         8           tot       1.00000           aqu         2           rhg       1.00000  
       9  rtu090                  90    6161.67000      -5.36741     -79.81438     367.18996         9              null         0         0         0         2           sdc         9           tot       1.00000           aqu         4           rhg       1.00000  
      10  rtu100                 100    2992.14000      -5.34792     -79.92832     310.70195        10              null         0         0         0         2           sdc        10           tot       1.00000           aqu         5           rhg       1.00000  
      11  rtu110                 110    3065.04000      -5.31126     -79.82566     292.17257        11              null         0         0         0         2           sdc        11           tot       1.00000           aqu         1           rhg       1.00000  
      12  rtu120                 120    2472.12000      -5.31708     -79.77219     334.36599        12              null         0         0         0         2           sdc        12           tot       1.00000           aqu         1           rhg       1.00000  
      13  rtu130                 130    1437.75000      -5.31610     -79.73435     326.80845        13              null         0         0         0         2           sdc        13           tot       1.00000           aqu         1           rhg       1.00000  
      14  rtu140                 140    4963.68000      -5.31715     -79.68833     666.38708        14              null         0         0         0         2           sdc        14           tot       1.00000           aqu         1           rhg       1.00000  
      15  rtu150                 150     711.99000      -5.26610     -79.67348     611.96815        15              null         0         0         0         2           sdc        15           tot       1.00000           aqu         1           rhg       1.00000  
      16  rtu160                 160     567.81000      -5.24804     -79.66483     688.90014        16              null         0         0         0         2           sdc        16           tot       1.00000           aqu         1           rhg       1.00000  
      17  rtu170                 170     753.30000      -5.23012     -79.65357     894.34194        17              null         0         0         0         2           sdc        17           tot       1.00000           aqu         1           rhg       1.00000  
      18  rtu180                 180    3717.09000      -5.35766     -79.71597     530.82022        18              null         0         0         0         2           sdc        18           tot       1.00000           aqu         1           rhg       1.00000  
      19  rtu190                 190    2569.32000      -5.18944     -79.64102    1427.35939        19              null         0         0         0         2           sdc        19           tot       1.00000           aqu         1           rhg       1.00000  
      20  rtu200                 200   10240.83000      -5.17684     -79.69128    1419.14909        20              null         0         0         0         2           sdc        20           tot       1.00000           aqu         1           rhg       1.00000  
      21  rtu210                 210    3971.43000      -5.21653     -79.59774    2042.12584        21              null         0         0         0         2           sdc        21           tot       1.00000           aqu         1           rhg       1.00000  
      22  rtu220                 220    1040.85000      -5.28579     -79.80426     356.11206        22              null         0         0         0         2           sdc        22           tot       1.00000           aqu         1           rhg       1.00000  
      23  rtu230                 230    2279.34000      -5.34971     -79.86788     264.09666        23              null         0         0         0         2           sdc        23           tot       1.00000           aqu         2           rhg       1.00000  
      24  rtu240                 240    3363.93000      -5.29127     -79.86767     502.26439        24              null         0         0         0         2           sdc        24           tot       1.00000           aqu         2           rhg       1.00000  
      25  rtu250                 250    6732.72000      -5.30551     -79.62255    1620.36838        25              null         0         0         0         2           sdc        25           tot       1.00000           aqu         1           rhg       1.00000  
      26  rtu260                 260    3380.94000      -5.26556     -79.72380     502.27935        26              null         0         0         0         2           sdc        26           tot       1.00000           aqu         1           rhg       1.00000  
      27  rtu270                 270    3015.63000      -5.24999     -79.79445     480.54848        27              null         0         0         0         2           sdc        27           tot       1.00000           aqu         1           rhg       1.00000  
      28  rtu280                 280    4605.66000      -5.25742     -79.60593    1924.31657        28              null         0         0         0         2           sdc        28           tot       1.00000           aqu         1           rhg       1.00000  
      29  rtu290                 290    3944.70000      -5.24761     -79.75400     510.01910        29              null         0         0         0         2           sdc        29           tot       1.00000           aqu         1           rhg       1.00000  
      30  rtu300                 300    3373.65000      -5.42556     -79.79973     477.12989        30              null         0         0         0         2           sdc        30           tot       1.00000           aqu         4           rhg       1.00000  
      31  rtu310                 310     149.85000      -5.43126     -79.76429     211.50270        31              null         0         0         0         2           sdc        31           tot       1.00000           aqu         4           rhg       1.00000  
      32  rtu320                 320     771.93000      -5.44657     -79.76019     302.19832        32              null         0         0         0         2           sdc        32           tot       1.00000           aqu         4           rhg       1.00000  
      33  rtu330                 330    3802.14000      -5.47706     -79.73536     513.65807        33              null         0         0         0         2           sdc        33           tot       1.00000           aqu         4           rhg       1.00000  
      34  rtu340                 340    1816.83000      -5.38534     -79.92146     361.56754        34              null         0         0         0         2           sdc        34           tot       1.00000           aqu         5           rhg       1.00000  
      35  rtu350                 350     829.44000      -5.41719     -79.92409     352.58984        35              null         0         0         0         2           sdc        35           tot       1.00000           aqu         5           rhg       1.00000  
      36  rtu360                 360    7227.63000      -5.50705     -79.78908     656.82192        36              null         0         0         0         2           sdc        36           tot       1.00000           aqu         4           rhg       1.00000  
      37  rtu370                 370    9038.79000      -5.47460     -79.86001     605.64441        37              null         0         0         0         2           sdc        37           tot       1.00000           aqu         5           rhg       1.00000  
      38  rtu380                 380    3743.01000      -5.47235     -79.93079     544.12140        38              null         0         0         0         2           sdc        38           tot       1.00000           aqu         5           rhg       1.00000  
      39  rtu390                 390    4931.28000      -5.40532     -79.71646     444.70007        39              null         0         0         0         2           sdc        39           tot       1.00000           aqu         4           rhg       1.00000  
      40  rtu400                 400    1357.56000      -5.41572     -79.64016     841.16169        40              null         0         0         0         2           sdc        40           tot       1.00000           aqu         4           rhg       1.00000  
      41  rtu410                 410   12706.47000      -5.43976     -79.61858    1387.12475        41              null         0         0         0         2           sdc        41           tot       1.00000           aqu         4           rhg       1.00000  
      42  rtu420                 420    2950.02000      -5.41728     -79.87256     474.41433        42              null         0         0         0         2           sdc        42           tot       1.00000           aqu         5           rhg       1.00000  
      43  rtu430                 430    3102.30000      -5.39883     -79.58207    1787.32846        43              null         0         0         0         2           sdc        43           tot       1.00000           aqu         4           rhg       1.00000  
      44  rtu440                 440    2016.09000      -5.38400     -79.76588     532.21213        44              null         0         0         0         2           sdc        44           tot       1.00000           aqu         4           rhg       1.00000  
      45  rtu450                 450    3103.11000      -5.37311     -79.64890    1078.21169        45              null         0         0         0         2           sdc        45           tot       1.00000           aqu         4           rhg       1.00000  
      46  rtu460                 460    2139.21000      -5.38171     -79.87651     397.76638        46              null         0         0         0         2           sdc        46           tot       1.00000           aqu         5           rhg       1.00000  
      47  rtu470                 470    6385.23000      -5.35434     -79.58421    2048.84549        47              null         0         0         0         2           sdc        47           tot       1.00000           aqu         4           rhg       1.00000  
      48  rtu480                 480     660.15000      -5.50000     -79.72259     549.37055        48              null         0         0         0         2           sdc        48           tot       1.00000           aqu         4           rhg       1.00000  
      49  rtu490                 490    2318.22000      -5.52990     -79.72509     630.17994        49              null         0         0         0         2           sdc        49           tot       1.00000           aqu         7           rhg       1.00000  
      50  rtu500                 500    3155.76000      -5.56736     -79.70837     625.46535        50              null         0         0         0         2           sdc        50           tot       1.00000           aqu         7           rhg       1.00000  
      51  rtu510                 510    5210.73000      -5.60918     -79.67177     930.29489        51              null         0         0         0         2           sdc        51           tot       1.00000           aqu         7           rhg       1.00000  
      52  rtu520                 520    3666.87000      -5.61241     -79.72565     655.64104        52              null         0         0         0         2           sdc        52           tot       1.00000           aqu         7           rhg       1.00000  
      53  rtu530                 530    4347.27000      -5.52867     -79.65987     821.71306        53              null         0         0         0         2           sdc        53           tot       1.00000           aqu         6           rhg       1.00000  
      54  rtu540                 540    1543.05000      -5.49907     -79.61505    1136.89816        54              null         0         0         0         2           sdc        54           tot       1.00000           aqu         6           rhg       1.00000  
      55  rtu550                 550     724.14000      -5.51095     -79.59374     983.17114        55              null         0         0         0         2           sdc        55           tot       1.00000           aqu         6           rhg       1.00000  
      56  rtu560                 560    1997.46000      -5.56244     -79.75385     763.31590        56              null         0         0         0         2           sdc        56           tot       1.00000           aqu         7           rhg       1.00000  
      57  rtu570                 570    3647.43000      -5.56099     -79.60465    1273.08950        57              null         0         0         0         2           sdc        57           tot       1.00000           aqu         6           rhg       1.00000  
      58  rtu580                 580    4925.61000      -5.55387     -79.55215    1697.49071        58              null         0         0         0         2           sdc        58           tot       1.00000           aqu         6           rhg       1.00000  
      59  rtu590                 590    5748.57000      -5.51599     -79.51451    2064.55545        59              null         0         0         0         2           sdc        59           tot       1.00000           aqu         6           rhg       1.00000  
      60  rtu600                 600    2810.70000      -5.48903     -79.67751     792.58357        60              null         0         0         0         2           sdc        60           tot       1.00000           aqu         4           rhg       1.00000  
      61  rtu610                 610    6897.96000      -5.47192     -79.53349    1932.27959        61              null         0         0         0         2           sdc        61           tot       1.00000           aqu         6           rhg       1.00000  
      62  rtu620                 620    1550.34000      -5.63518     -79.63437    1194.69488        62              null         0         0         0         2           sdc        62           tot       1.00000           aqu         7           rhg       1.00000  
      63  rtu630                 630    3410.91000      -5.67517     -79.60797    1698.24175        63              null         0         0         0         2           sdc        63           tot       1.00000           aqu         7           rhg       1.00000  
      64  rtu640                 640    5836.05000      -5.63008     -79.57216    1845.15045        64              null         0         0         0         2           sdc        64           tot       1.00000           aqu         7           rhg       1.00000  
      65  rtu650                 650    2237.22000      -5.59607     -79.61975    1292.23932        65              null         0         0         0         2           sdc        65           tot       1.00000           aqu         7           rhg       1.00000  
