rout_unit.ele: written by SWAT+ editor v3.0.4 on 2024-11-12 23:04 for SWAT+ rev.61.0.1
      id  name                   obj_typ    obj_id          frac               dlr  
       1  hru001                     hru         1     2.4061E-1                 0  
       2  hru002                     hru         2     4.1349E-2                 0  
       3  hru003                     hru         3     5.0699E-2                 0  
       4  hru004                     hru         4     5.7388E-1                 0  
       5  hru005                     hru         5     9.3465E-2                 0  
       6  hru006                     hru         6     1.1058E-1                 0  
       7  hru007                     hru         7     1.2134E-1                 0  
       8  hru008                     hru         8     1.1301E-1                 0  
       9  hru009                     hru         9     2.1694E-1                 0  
      10  hru010                     hru        10     1.8079E-2                 0  
      11  hru011                     hru        11     3.1610E-2                 0  
      12  hru012                     hru        12     1.8759E-1                 0  
      13  hru013                     hru        13     2.0085E-1                 0  
      14  hru014                     hru        14     5.8877E-1                 0  
      15  hru015                     hru        15     1.6721E-1                 0  
      16  hru016                     hru        16     9.1949E-2                 0  
      17  hru017                     hru        17     4.1974E-2                 0  
      18  hru018                     hru        18     9.1172E-2                 0  
      19  hru019                     hru        19     1.8923E-2                 0  
      20  hru020                     hru        20     1.0057E-1                 0  
      21  hru021                     hru        21     5.8584E-2                 0  
      22  hru022                     hru        22     4.7390E-1                 0  
      23  hru023                     hru        23     1.3390E-1                 0  
      24  hru024                     hru        24     5.2294E-3                 0  
      25  hru025                     hru        25     8.7157E-3                 0  
      26  hru026                     hru        26     7.8871E-2                 0  
      27  hru027                     hru        27     3.4741E-2                 0  
      28  hru028                     hru        28     8.4060E-3                 0  
      29  hru029                     hru        29     9.6669E-3                 0  
      30  hru030                     hru        30     5.5143E-2                 0  
      31  hru031                     hru        31     3.2279E-2                 0  
      32  hru032                     hru        32     1.1546E-1                 0  
      33  hru033                     hru        33     8.2975E-2                 0  
      34  hru034                     hru        34     9.5935E-3                 0  
      35  hru035                     hru        35     2.9887E-2                 0  
      36  hru036                     hru        36     7.6094E-2                 0  
      37  hru037                     hru        37     4.5121E-2                 0  
      38  hru038                     hru        38     2.7849E-2                 0  
      39  hru039                     hru        39     4.1964E-3                 0  
      40  hru040                     hru        40     1.6023E-2                 0  
      41  hru041                     hru        41     3.1349E-2                 0  
      42  hru042                     hru        42     6.3925E-2                 0  
      43  hru043                     hru        43     1.0420E-1                 0  
      44  hru044                     hru        44     6.8403E-3                 0  
      45  hru045                     hru        45     2.1241E-2                 0  
      46  hru046                     hru        46     1.4997E-1                 0  
      47  hru047                     hru        47     1.0655E-1                 0  
      48  hru048                     hru        48     4.8361E-2                 0  
      49  hru049                     hru        49     1.1419E-2                 0  
      50  hru050                     hru        50     4.8940E-2                 0  
      51  hru051                     hru        51     1.3803E-1                 0  
      52  hru052                     hru        52     1.8093E-1                 0  
      53  hru053                     hru        53     1.0191E-1                 0  
      54  hru054                     hru        54     1.7395E-1                 0  
      55  hru055                     hru        55     1.0017E-1                 0  
      56  hru056                     hru        56     1.5845E-1                 0  
      57  hru057                     hru        57     6.5134E-2                 0  
      58  hru058                     hru        58     8.1418E-2                 0  
      59  hru059                     hru        59     1.4277E-1                 0  
      60  hru060                     hru        60     2.0793E-1                 0  
      61  hru061                     hru        61     2.9475E-2                 0  
      62  hru062                     hru        62     5.8446E-2                 0  
      63  hru063                     hru        63     1.3029E-1                 0  
      64  hru064                     hru        64     1.7303E-1                 0  
      65  hru065                     hru        65     1.5127E-1                 0  
      66  hru066                     hru        66     1.0679E-1                 0  
      67  hru067                     hru        67     9.4330E-2                 0  
      68  hru068                     hru        68     2.9006E-2                 0  
      69  hru069                     hru        69     2.3400E-2                 0  
      70  hru070                     hru        70     3.4856E-2                 0  
      71  hru071                     hru        71     5.2571E-1                 0  
      72  hru072                     hru        72     1.0633E-1                 0  
      73  hru073                     hru        73     3.0030E-2                 0  
      74  hru074                     hru        74     8.7002E-3                 0  
      75  hru075                     hru        75     9.8228E-3                 0  
      76  hru076                     hru        76     2.9757E-2                 0  
      77  hru077                     hru        77     1.7957E-2                 0  
      78  hru078                     hru        78     4.1300E-2                 0  
      79  hru079                     hru        79     4.0854E-2                 0  
      80  hru080                     hru        80     7.9515E-3                 0  
      81  hru081                     hru        81     1.9873E-1                 0  
      82  hru082                     hru        82     6.7653E-2                 0  
      83  hru083                     hru        83     1.4722E-2                 0  
      84  hru084                     hru        84     1.1911E-1                 0  
      85  hru085                     hru        85     6.5678E-2                 0  
      86  hru086                     hru        86     1.0104E-2                 0  
      87  hru087                     hru        87     1.1841E-2                 0  
      88  hru088                     hru        88     2.3682E-3                 0  
      89  hru089                     hru        89     3.9075E-2                 0  
      90  hru090                     hru        90     1.2914E-1                 0  
      91  hru091                     hru        91     2.1954E-2                 0  
      92  hru092                     hru        92     6.9911E-2                 0  
      93  hru093                     hru        93     2.7465E-2                 0  
      94  hru094                     hru        94     7.4905E-3                 0  
      95  hru095                     hru        95     3.4611E-2                 0  
      96  hru096                     hru        96     1.0095E-1                 0  
      97  hru097                     hru        97     7.0854E-2                 0  
      98  hru098                     hru        98     8.3357E-3                 0  
      99  hru099                     hru        99     1.2828E-2                 0  
     100  hru100                     hru       100     1.0039E-2                 0  
     101  hru101                     hru       101     1.2828E-2                 0  
     102  hru102                     hru       102     3.6615E-3                 0  
     103  hru103                     hru       103     1.6477E-2                 0  
     104  hru104                     hru       104     3.4000E-3                 0  
     105  hru105                     hru       105     2.4926E-2                 0  
     106  hru106                     hru       106     9.1395E-2                 0  
     107  hru107                     hru       107     2.0252E-2                 0  
     108  hru108                     hru       108     1.1909E-2                 0  
     109  hru109                     hru       109     7.7546E-3                 0  
     110  hru110                     hru       110     7.7546E-3                 0  
     111  hru111                     hru       111     7.3667E-2                 0  
     112  hru112                     hru       112     5.9745E-1                 0  
     113  hru113                     hru       113     8.9899E-2                 0  
     114  hru114                     hru       114     1.5759E-2                 0  
     115  hru115                     hru       115     2.3011E-2                 0  
     116  hru116                     hru       116     5.2551E-2                 0  
     117  hru117                     hru       117     1.3682E-2                 0  
     118  hru118                     hru       118     1.0883E-2                 0  
     119  hru119                     hru       119     4.7038E-1                 0  
     120  hru120                     hru       120     1.9258E-1                 0  
     121  hru121                     hru       121     3.5194E-2                 0  
     122  hru122                     hru       122     7.3588E-3                 0  
     123  hru123                     hru       123     9.5984E-3                 0  
     124  hru124                     hru       124     1.3398E-2                 0  
     125  hru125                     hru       125     3.8133E-2                 0  
     126  hru126                     hru       126     2.7668E-2                 0  
     127  hru127                     hru       127     3.3742E-3                 0  
     128  hru128                     hru       128     1.4085E-2                 0  
     129  hru129                     hru       129     1.3757E-2                 0  
     130  hru130                     hru       130     2.0308E-2                 0  
     131  hru131                     hru       131     7.2283E-3                 0  
     132  hru132                     hru       132     1.7210E-2                 0  
     133  hru133                     hru       133     1.6178E-2                 0  
     134  hru134                     hru       134     3.4435E-3                 0  
     135  hru135                     hru       135     9.9861E-3                 0  
     136  hru136                     hru       136     4.2214E-2                 0  
     137  hru137                     hru       137     2.1107E-1                 0  
     138  hru138                     hru       138     8.0375E-2                 0  
     139  hru139                     hru       139     4.8599E-2                 0  
     140  hru140                     hru       140     6.4179E-2                 0  
     141  hru141                     hru       141     1.0407E-2                 0  
     142  hru142                     hru       142     4.8946E-3                 0  
     143  hru143                     hru       143     1.7947E-2                 0  
     144  hru144                     hru       144     1.1421E-2                 0  
     145  hru145                     hru       145     1.1421E-2                 0  
     146  hru146                     hru       146     3.2631E-3                 0  
     147  hru147                     hru       147     9.7892E-3                 0  
     148  hru148                     hru       148     4.8946E-3                 0  
     149  hru149                     hru       149     4.8946E-3                 0  
     150  hru150                     hru       150     3.5207E-2                 0  
     151  hru151                     hru       151     2.1124E-2                 0  
     152  hru152                     hru       152     1.0562E-2                 0  
     153  hru153                     hru       153     2.2145E-2                 0  
     154  hru154                     hru       154     1.1073E-2                 0  
     155  hru155                     hru       155     3.0054E-2                 0  
     156  hru156                     hru       156     1.5065E-2                 0  
     157  hru157                     hru       157     9.0388E-3                 0  
     158  hru158                     hru       158     3.0129E-3                 0  
     159  hru159                     hru       159     7.9090E-3                 0  
     160  hru160                     hru       160     6.3272E-3                 0  
     161  hru161                     hru       161     1.7400E-2                 0  
     162  hru162                     hru       162     8.0788E-2                 0  
     163  hru163                     hru       163     1.9704E-2                 0  
     164  hru164                     hru       164     5.1232E-2                 0  
     165  hru165                     hru       165     1.3793E-2                 0  
     166  hru166                     hru       166     5.9113E-2                 0  
     167  hru167                     hru       167     1.5764E-2                 0  
     168  hru168                     hru       168     4.5320E-2                 0  
     169  hru169                     hru       169     7.7728E-2                 0  
     170  hru170                     hru       170     1.1382E-1                 0  
     171  hru171                     hru       171     5.7746E-2                 0  
     172  hru172                     hru       172     3.5793E-2                 0  
     173  hru173                     hru       173     2.1160E-2                 0  
     174  hru174                     hru       174     1.5488E-2                 0  
     175  hru175                     hru       175     2.3166E-1                 0  
     176  hru176                     hru       176     1.4387E-1                 0  
     177  hru177                     hru       177     1.3574E-1                 0  
     178  hru178                     hru       178     1.6699E-1                 0  
     179  hru179                     hru       179     8.7667E-2                 0  
     180  hru180                     hru       180     4.6964E-2                 0  
     181  hru181                     hru       181     3.3415E-1                 0  
     182  hru182                     hru       182     5.6185E-2                 0  
     183  hru183                     hru       183     5.0271E-2                 0  
     184  hru184                     hru       184     1.9607E-2                 0  
     185  hru185                     hru       185     6.3347E-2                 0  
     186  hru186                     hru       186     3.0178E-2                 0  
     187  hru187                     hru       187     9.2123E-2                 0  
     188  hru188                     hru       188     4.6839E-2                 0  
     189  hru189                     hru       189     4.0376E-2                 0  
     190  hru190                     hru       190     7.7645E-3                 0  
     191  hru191                     hru       191     4.3866E-2                 0  
     192  hru192                     hru       192     1.8396E-2                 0  
     193  hru193                     hru       193     1.1320E-2                 0  
     194  hru194                     hru       194     5.6602E-3                 0  
     195  hru195                     hru       195     1.0225E-2                 0  
     196  hru196                     hru       196     2.7753E-2                 0  
     197  hru197                     hru       197     7.3034E-3                 0  
     198  hru198                     hru       198     6.2698E-2                 0  
     199  hru199                     hru       199     3.7486E-1                 0  
     200  hru200                     hru       200     5.6075E-2                 0  
     201  hru201                     hru       201     6.8376E-2                 0  
     202  hru202                     hru       202     1.7994E-2                 0  
     203  hru203                     hru       203     1.4170E-2                 0  
     204  hru204                     hru       204     1.4505E-1                 0  
     205  hru205                     hru       205     2.8719E-2                 0  
     206  hru206                     hru       206     3.0912E-2                 0  
     207  hru207                     hru       207     9.5726E-3                 0  
     208  hru208                     hru       208     9.1738E-3                 0  
     209  hru209                     hru       209     3.2302E-2                 0  
     210  hru210                     hru       210     2.3545E-2                 0  
     211  hru211                     hru       211     3.7166E-2                 0  
     212  hru212                     hru       212     3.3084E-2                 0  
     213  hru213                     hru       213     4.1210E-2                 0  
     214  hru214                     hru       214     1.5091E-2                 0  
     215  hru215                     hru       215     7.5133E-2                 0  
     216  hru216                     hru       216     3.1269E-1                 0  
     217  hru217                     hru       217     3.3613E-2                 0  
     218  hru218                     hru       218     1.4535E-2                 0  
     219  hru219                     hru       219     3.0888E-2                 0  
     220  hru220                     hru       220     7.1044E-3                 0  
     221  hru221                     hru       221     9.7685E-3                 0  
     222  hru222                     hru       222     1.9537E-2                 0  
     223  hru223                     hru       223     1.9366E-2                 0  
     224  hru224                     hru       224     4.6110E-3                 0  
     225  hru225                     hru       225     1.2918E-1                 0  
     226  hru226                     hru       226     2.6520E-2                 0  
     227  hru227                     hru       227     5.9884E-2                 0  
     228  hru228                     hru       228     6.8749E-2                 0  
     229  hru229                     hru       229     1.1034E-2                 0  
     230  hru230                     hru       230     2.3765E-2                 0  
     231  hru231                     hru       231     1.0614E-1                 0  
     232  hru232                     hru       232     4.7484E-2                 0  
     233  hru233                     hru       233     2.0787E-1                 0  
     234  hru234                     hru       234     1.3510E-1                 0  
     235  hru235                     hru       235     2.0058E-1                 0  
     236  hru236                     hru       236     2.2613E-1                 0  
     237  hru237                     hru       237     1.1526E-1                 0  
     238  hru238                     hru       238     7.0117E-2                 0  
     239  hru239                     hru       239     2.2643E-2                 0  
     240  hru240                     hru       240     1.7195E-2                 0  
     241  hru241                     hru       241     5.1074E-3                 0  
     242  hru242                     hru       242     2.5977E-2                 0  
     243  hru243                     hru       243     1.0468E-1                 0  
     244  hru244                     hru       244     3.4507E-2                 0  
     245  hru245                     hru       245     1.0011E-1                 0  
     246  hru246                     hru       246     1.3950E-1                 0  
     247  hru247                     hru       247     4.1562E-2                 0  
     248  hru248                     hru       248     3.8787E-2                 0  
     249  hru249                     hru       249     5.9580E-2                 0  
     250  hru250                     hru       250     1.0419E-1                 0  
     251  hru251                     hru       251     5.3603E-2                 0  
     252  hru252                     hru       252     5.9928E-2                 0  
     253  hru253                     hru       253     4.2757E-2                 0  
     254  hru254                     hru       254     1.6160E-2                 0  
     255  hru255                     hru       255     2.8288E-2                 0  
     256  hru256                     hru       256     1.7045E-2                 0  
     257  hru257                     hru       257     2.1397E-2                 0  
     258  hru258                     hru       258     3.5065E-2                 0  
     259  hru259                     hru       259     2.4439E-2                 0  
     260  hru260                     hru       260     5.2420E-2                 0  
     261  hru261                     hru       261     2.1140E-1                 0  
     262  hru262                     hru       262     1.3054E-1                 0  
     263  hru263                     hru       263     5.0657E-2                 0  
     264  hru264                     hru       264     5.6741E-2                 0  
     265  hru265                     hru       265     1.3696E-2                 0  
     266  hru266                     hru       266     3.2284E-2                 0  
     267  hru267                     hru       267     1.0803E-1                 0  
     268  hru268                     hru       268     5.7129E-2                 0  
     269  hru269                     hru       269     8.7294E-2                 0  
     270  hru270                     hru       270     7.5553E-2                 0  
     271  hru271                     hru       271     2.5042E-2                 0  
     272  hru272                     hru       272     7.5590E-2                 0  
     273  hru273                     hru       273     7.6054E-2                 0  
     274  hru274                     hru       274     2.2024E-1                 0  
     275  hru275                     hru       275     1.0783E-1                 0  
     276  hru276                     hru       276     4.9875E-2                 0  
     277  hru277                     hru       277     2.4542E-2                 0  
     278  hru278                     hru       278     1.0292E-2                 0  
     279  hru279                     hru       279     4.2878E-2                 0  
     280  hru280                     hru       280     1.9851E-2                 0  
     281  hru281                     hru       281     1.2704E-2                 0  
     282  hru282                     hru       282     4.2794E-2                 0  
     283  hru283                     hru       283     1.9583E-2                 0  
     284  hru284                     hru       284     5.7300E-2                 0  
     285  hru285                     hru       285     1.4506E-2                 0  
     286  hru286                     hru       286     4.6820E-2                 0  
     287  hru287                     hru       287     3.4737E-2                 0  
     288  hru288                     hru       288     1.0195E-1                 0  
     289  hru289                     hru       289     6.9253E-2                 0  
     290  hru290                     hru       290     9.1687E-2                 0  
     291  hru291                     hru       291     3.3163E-2                 0  
     292  hru292                     hru       292     2.9170E-2                 0  
     293  hru293                     hru       293     1.8009E-2                 0  
     294  hru294                     hru       294     2.6126E-2                 0  
     295  hru295                     hru       295     1.1548E-2                 0  
     296  hru296                     hru       296     7.6273E-2                 0  
     297  hru297                     hru       297     2.0263E-2                 0  
     298  hru298                     hru       298     5.8657E-3                 0  
     299  hru299                     hru       299     1.0284E-1                 0  
     300  hru300                     hru       300     3.5452E-1                 0  
     301  hru301                     hru       301     1.5369E-1                 0  
     302  hru302                     hru       302     2.7983E-2                 0  
     303  hru303                     hru       303     1.0813E-1                 0  
     304  hru304                     hru       304     2.1191E-2                 0  
     305  hru305                     hru       305     4.4394E-2                 0  
     306  hru306                     hru       306     4.2466E-1                 0  
     307  hru307                     hru       307     2.6708E-1                 0  
     308  hru308                     hru       308     1.0333E-1                 0  
     309  hru309                     hru       309     1.6980E-1                 0  
     310  hru310                     hru       310     3.5132E-2                 0  
     311  hru311                     hru       311     2.7013E-1                 0  
     312  hru312                     hru       312     8.0876E-2                 0  
     313  hru313                     hru       313     1.6686E-1                 0  
     314  hru314                     hru       314     1.2515E-1                 0  
     315  hru315                     hru       315     6.7093E-2                 0  
     316  hru316                     hru       316     1.4043E-2                 0  
     317  hru317                     hru       317     2.6525E-2                 0  
     318  hru318                     hru       318     2.3627E-2                 0  
     319  hru319                     hru       319     2.0847E-2                 0  
     320  hru320                     hru       320     2.9481E-2                 0  
     321  hru321                     hru       321     2.2462E-2                 0  
     322  hru322                     hru       322     1.5442E-2                 0  
     323  hru323                     hru       323     2.6954E-3                 0  
     324  hru324                     hru       324     1.2129E-2                 0  
     325  hru325                     hru       325     4.6303E-2                 0  
     326  hru326                     hru       326     7.7172E-3                 0  
     327  hru327                     hru       327     5.1101E-2                 0  
     328  hru328                     hru       328     1.7520E-2                 0  
     329  hru329                     hru       329     1.3741E-1                 0  
     330  hru330                     hru       330     6.3799E-2                 0  
     331  hru331                     hru       331     1.3496E-1                 0  
     332  hru332                     hru       332     6.8655E-2                 0  
     333  hru333                     hru       333     9.1540E-2                 0  
     334  hru334                     hru       334     8.8997E-2                 0  
     335  hru335                     hru       335     2.5566E-2                 0  
     336  hru336                     hru       336     2.6390E-2                 0  
     337  hru337                     hru       337     2.1592E-2                 0  
     338  hru338                     hru       338     2.6390E-2                 0  
     339  hru339                     hru       339     2.5566E-2                 0  
     340  hru340                     hru       340     9.2966E-3                 0  
     341  hru341                     hru       341     3.4862E-2                 0  
     342  hru342                     hru       342     2.3242E-2                 0  
     343  hru343                     hru       343     9.4353E-3                 0  
     344  hru344                     hru       344     1.1794E-2                 0  
     345  hru345                     hru       345     3.3024E-2                 0  
     346  hru346                     hru       346     7.0765E-3                 0  
     347  hru347                     hru       347     2.3588E-2                 0  
     348  hru348                     hru       348     5.4253E-2                 0  
     349  hru349                     hru       349     9.4353E-3                 0  
     350  hru350                     hru       350     6.3688E-2                 0  