rout_unit.def: written by SWAT+ editor v3.0.4 on 2024-11-12 23:04 for SWAT+ rev.61.0.1
      id              name  elem_tot  elements  
       1            rtu010         2        51       -58  
       2            rtu020         2        20       -31  
       3            rtu030         2        14       -19  
       4            rtu040         2         1        -5  
       5            rtu050         2       378      -395  
       6            rtu060         2       311      -328  
       7            rtu070         2       352      -354  
       8            rtu080         2       329      -351  
       9            rtu090         2       404      -417  
      10            rtu100         2       590      -608  
      11            rtu110         2       242      -260  
      12            rtu120         2       261      -273  
      13            rtu130         2       274      -291  
      14            rtu140         2       198      -214  
      15            rtu150         2       179      -197  
      16            rtu160         2       136      -168  
      17            rtu170         2        81       -98  
      18            rtu180         2       292      -305  
      19            rtu190         2        32       -50  
      20            rtu200         2         6       -13  
      21            rtu210         2        59       -66  
      22            rtu220         2       215      -232  
      23            rtu230         2       355      -377  
      24            rtu240         2       306      -310  
      25            rtu250         2       233      -241  
      26            rtu260         2        99      -114  
      27            rtu270         2       115      -135  
      28            rtu280         2       169      -178  
      29            rtu290         2        67       -80  
      30            rtu300         2       487      -504  
      31            rtu310         2       505      -514  
      32            rtu320         2       515      -536  
      33            rtu330         2       537      -555  
      34            rtu340         2       611      -625  
      35            rtu350         2       629      -643  
      36            rtu360         2       556      -559  
      37            rtu370         2       644      -649  
      38            rtu380         2       650      -664  
      39            rtu390         2       454      -467  
      40            rtu400         2       481      -486  
      41            rtu410         2       468      -480  
      42            rtu420         2       626      -628  
      43            rtu430         2       447      -453  
      44            rtu440         2       445      -446  
      45            rtu450         2       418      -444  
      46            rtu460         2       609      -610  
      47            rtu470         2       396      -403  
      48            rtu480         2       569      -589  
      49            rtu490         2       720      -739  
      50            rtu500         2       745      -761  
      51            rtu510         2       762      -776  
      52            rtu520         2       791      -799  
      53            rtu530         2       687      -694  
      54            rtu540         2       673      -682  
      55            rtu550         2       695      -698  
      56            rtu560         2       740      -744  
      57            rtu570         2       705      -719  
      58            rtu580         2       699      -704  
      59            rtu590         2       683      -686  
      60            rtu600         2       560      -568  
      61            rtu610         2       665      -672  
      62            rtu620         2       808      -819  
      63            rtu630         2       820      -837  
      64            rtu640         2       800      -807  
      65            rtu650         2       777      -790  
