soils.sol: written by SWAT+ editor v3.0.4 on 2024-11-12 23:05 for SWAT+ rev.61.0.1
name                            nly           hyd_grp        dp_tot    anion_excl      perc_crk  texture                              dp            bd           awc        soil_k        carbon          clay          silt          sand          rock           alb        usle_k            ec         caco3            ph  
DSOLMap_1413                      6                 C    2000.00000       0.50000       0.50000  WIT_texture                
                                                                                                                                50.00000       0.92630       0.21620      36.60000      10.96000      17.83000      39.16000      43.00000      10.89000       0.21370       0.13900       0.00000       0.00000       0.00000  
                                                                                                                               100.00000       1.10700       0.21640      34.88000       9.21000      18.16000      38.80000      43.03000      11.46000       0.21400       0.13900       0.00000       0.00000       0.00000  
                                                                                                                               300.00000       1.22400       0.20970      32.72000       5.40600      18.84000      37.53000      43.62000      11.86000       0.21510       0.14320       0.00000       0.00000       0.00000  
                                                                                                                               600.00000       1.32500       0.19620      29.90000       4.59800      19.20000      36.28000      44.53000      14.31000       0.21550       0.14670       0.00000       0.00000       0.00000  
                                                                                                                              1000.00000       1.35100       0.19130      30.25000       4.45700      18.84000      35.66000      45.50000      15.52000       0.21570       0.14800       0.00000       0.00000       0.00000  
                                                                                                                              2000.00000       1.37800       0.18750      30.30000       4.30000      18.69000      34.94000      46.38000      16.22000       0.21600       0.14870       0.00000       0.00000       0.00000  
DSOLMap_1410                      6                 C    2000.00000       0.50000       0.50000  WIT_texture                
                                                                                                                                50.00000       1.28700       0.16820      21.81000       3.51400      24.08000      37.30000      38.60000       9.76000       0.21450       0.14090       0.00000       0.00000       0.00000  
                                                                                                                               100.00000       1.31800       0.16310      20.42000       3.06600      24.69000      37.06000      38.20000      10.16400       0.21420       0.14170       0.00000       0.00000       0.00000  
                                                                                                                               300.00000       1.38500       0.15390      15.05000       2.02700      28.34000      35.25000      36.47000      10.17000       0.21330       0.15050       0.00000       0.00000       0.00000  
                                                                                                                               600.00000       1.42900       0.14320      12.59000       1.56200      30.12000      34.06000      35.80000      11.03000       0.21290       0.15640       0.00000       0.00000       0.00000  
                                                                                                                              1000.00000       1.45300       0.14040      12.63000       1.46500      29.56000      33.60000      36.84000      11.97000       0.21310       0.15800       0.00000       0.00000       0.00000  
                                                                                                                              2000.00000       1.46300       0.13500      13.01600       1.38100      28.70000      33.00000      38.30000      12.97000       0.21350       0.15820       0.00000       0.00000       0.00000  
DSOLMap_942                       6                 C    2000.00000       0.50000       0.50000  WIT_texture                
                                                                                                                                50.00000       1.21300       0.17070      18.31000       4.63300      30.78000      31.88000      37.34000       9.56000       0.21130       0.13060       0.00000       0.00000       0.00000  
                                                                                                                               100.00000       1.23800       0.16500      17.44000       3.99600      31.33000      31.64000      37.03000      10.09000       0.21120       0.13090       0.00000       0.00000       0.00000  
                                                                                                                               300.00000       1.29100       0.15930      14.42000       2.92200      33.66000      30.61000      35.75000      10.60000       0.21070       0.13940       0.00000       0.00000       0.00000  
                                                                                                                               600.00000       1.32200       0.15280      12.37000       2.46000      35.34000      29.88000      34.78000      11.68000       0.21030       0.14560       0.00000       0.00000       0.00000  
                                                                                                                              1000.00000       1.34000       0.15190      12.14000       2.39600      35.10000      29.66000      35.28000      12.73000       0.21060       0.14750       0.00000       0.00000       0.00000  
                                                                                                                              2000.00000       1.34900       0.14640      12.19500       2.44100      34.34000      29.61000      36.06000      13.80000       0.21090       0.14800       0.00000       0.00000       0.00000  
DSOLMap_1374                      6                 C    2000.00000       0.50000       0.50000  WIT_texture                
                                                                                                                                50.00000       1.25800       0.17760      20.22000       5.99200      25.78000      36.70000      37.38000       9.34000       0.21300       0.13890       0.00000       0.00000       0.00000  
                                                                                                                               100.00000       1.30600       0.17290      18.06000       4.87000      27.20000      36.25000      36.75000       9.83600       0.21260       0.13930       0.00000       0.00000       0.00000  
                                                                                                                               300.00000       1.37300       0.16310      14.51000       3.79900      29.30000      35.10000      35.62000      10.05000       0.21230       0.14650       0.00000       0.00000       0.00000  
                                                                                                                               600.00000       1.41400       0.15310      12.68000       3.38000      30.28000      34.38000      35.38000      11.16000       0.21220       0.15210       0.00000       0.00000       0.00000  
                                                                                                                              1000.00000       1.43700       0.15060      12.90000       3.47500      29.52000      34.06000      36.40000      12.11000       0.21250       0.15380       0.00000       0.00000       0.00000  
                                                                                                                              2000.00000       1.44900       0.14560      13.05500       3.29700      28.78000      33.60000      37.62000      13.08000       0.21280       0.15470       0.00000       0.00000       0.00000  
DSOLMap_1884                      6                 B    2000.00000       0.50000       0.50000  WIT_texture                
                                                                                                                                50.00000       1.18400       0.13220      70.70000       5.61700      12.11000      25.05000      62.84000      15.54000       0.21810       0.14530       0.00000       0.00000       0.00000  
                                                                                                                               100.00000       1.27000       0.13400      68.00000       4.70000      12.50000      24.80000      62.70000      16.22000       0.21790       0.14530       0.00000       0.00000       0.00000  
                                                                                                                               300.00000       1.34900       0.12790      65.10000       2.72300      13.16400      24.12000      62.70000      16.81000       0.21890       0.14770       0.00000       0.00000       0.00000  
                                                                                                                               600.00000       1.41600       0.12300      59.40000       2.21900      13.72000      23.48000      62.78000      18.86000       0.21910       0.15000       0.00000       0.00000       0.00000  
                                                                                                                              1000.00000       1.45200       0.11830      61.40000       2.10200      13.36000      23.00000      63.62000      20.44000       0.21950       0.15030       0.00000       0.00000       0.00000  
                                                                                                                              2000.00000       1.46500       0.11660      62.88000       1.96500      13.20000      22.52000      64.25000      21.14000       0.21980       0.15000       0.00000       0.00000       0.00000  
DSOLMap_798                       6                 C    2000.00000       0.50000       0.50000  WIT_texture                
                                                                                                                                50.00000       1.24600       0.14840      24.20000       3.38900      30.16000      23.83000      46.12000       9.98400       0.21130       0.12740       0.00000       0.00000       0.00000  
                                                                                                                               100.00000       1.26300       0.14400      22.17000       2.92000      31.27000      23.67000      44.90000      10.56000       0.21120       0.12800       0.00000       0.00000       0.00000  
                                                                                                                               300.00000       1.30100       0.14000      17.89000       2.04500      34.28000      22.77000      42.94000      11.67000       0.21070       0.13650       0.00000       0.00000       0.00000  
                                                                                                                               600.00000       1.32200       0.13230      14.29000       1.63200      36.50000      22.25000      41.25000      13.10000       0.21010       0.14100       0.00000       0.00000       0.00000  
                                                                                                                              1000.00000       1.33600       0.13330      13.47000       1.51700      36.50000      22.20000      41.30000      14.54000       0.21010       0.14230       0.00000       0.00000       0.00000  
                                                                                                                              2000.00000       1.34300       0.12900      13.17000       1.53700      35.75000      22.55000      41.70000      15.85000       0.21040       0.14380       0.00000       0.00000       0.00000  
DSOLMap_786                       6                 C    2000.00000       0.50000       0.50000  WIT_texture                
                                                                                                                                50.00000       1.22500       0.14800      27.73000       2.79500      29.00000      23.17000      47.80000       7.94500       0.21190       0.12730       0.00000       0.00000       0.00000  
                                                                                                                               100.00000       1.23800       0.14200      26.56000       2.56600      29.73000      22.88000      47.38000       8.43000       0.21180       0.12720       0.00000       0.00000       0.00000  
                                                                                                                               300.00000       1.27700       0.13830      19.77000       1.66500      34.12000      21.86000      43.97000       9.37500       0.21080       0.13650       0.00000       0.00000       0.00000  
                                                                                                                               600.00000       1.29900       0.13210      14.81000       1.26000      37.12000      21.22000      41.66000      10.44000       0.20980       0.14010       0.00000       0.00000       0.00000  
                                                                                                                              1000.00000       1.31100       0.13290      13.83000       1.13600      37.30000      21.10000      41.60000      11.61000       0.20980       0.14110       0.00000       0.00000       0.00000  
                                                                                                                              2000.00000       1.31500       0.12850      13.65000       1.20300      36.62000      21.52000      41.88000      12.75000       0.21010       0.14140       0.00000       0.00000       0.00000  
DSOLMap_366                       6                 C    2000.00000       0.50000       0.50000  WIT_texture                
                                                                                                                                50.00000       1.23900       0.13780      23.22000       3.32800      32.50000      21.95000      46.03000       8.30500       0.21040       0.12366       0.00000       0.00000       0.00000  
                                                                                                                               100.00000       1.25900       0.13400      21.50000       2.87300      33.28000      21.73000      44.88000       8.81000       0.21030       0.12415       0.00000       0.00000       0.00000  
                                                                                                                               300.00000       1.29600       0.12990      18.02000       2.06400      35.50000      21.06000      43.40000       9.68000       0.21010       0.13200       0.00000       0.00000       0.00000  
                                                                                                                               600.00000       1.31800       0.12286      14.50000       1.62900      37.72000      20.53000      41.75000      11.05500       0.20950       0.13680       0.00000       0.00000       0.00000  
                                                                                                                              1000.00000       1.33200       0.12317      13.77000       1.53600      37.75000      20.47000      41.78000      12.42000       0.20950       0.13830       0.00000       0.00000       0.00000  
                                                                                                                              2000.00000       1.34100       0.11840      13.48000       1.52000      37.03000      20.77000      42.20000      13.82000       0.20970       0.14000       0.00000       0.00000       0.00000  
DSOLMap_362                       6                 D    2000.00000       0.50000       0.50000  WIT_texture                
                                                                                                                                50.00000       1.26800       0.12980      20.27000       3.07800      35.78000      18.31000      46.06000       8.83600       0.20940       0.12103       0.00000       0.00000       0.00000  
                                                                                                                               100.00000       1.28700       0.12730      18.58000       2.74200      36.66000      18.19000      44.90000       9.33000       0.20920       0.12146       0.00000       0.00000       0.00000  
                                                                                                                               300.00000       1.31800       0.12460      18.44000       2.05900      36.60000      17.64000      46.03000      10.14000       0.20960       0.12830       0.00000       0.00000       0.00000  
                                                                                                                               600.00000       1.34000       0.11835      14.51600       1.66900      38.40000      17.25000      44.34000      11.73000       0.20920       0.13240       0.00000       0.00000       0.00000  
                                                                                                                              1000.00000       1.35200       0.11840      13.80500       1.58100      38.47000      17.25000      44.28000      13.25000       0.20920       0.13340       0.00000       0.00000       0.00000  
                                                                                                                              2000.00000       1.35900       0.11470      13.44000       1.46000      37.72000      17.55000      44.75000      14.82000       0.20950       0.13550       0.00000       0.00000       0.00000  
DSOLMap_785                       6                 C    2000.00000       0.50000       0.50000  WIT_texture                
                                                                                                                                50.00000       1.31900       0.10840      45.25000       2.22900      24.38000      17.06000      58.56000       7.48400       0.21450       0.13040       0.00000       0.00000       0.00000  
                                                                                                                               100.00000       1.33700       0.10570      42.72000       1.94800      25.36000      16.77000      57.88000       8.03000       0.21410       0.13060       0.00000       0.00000       0.00000  
                                                                                                                               300.00000       1.36800       0.10156      33.78000       1.37500      28.64000      16.11000      55.25000       8.62500       0.21280       0.13510       0.00000       0.00000       0.00000  
                                                                                                                               600.00000       1.39200       0.09454      21.92000       1.00800      31.30000      15.79000      52.90000       9.74000       0.21170       0.13710       0.00000       0.00000       0.00000  
                                                                                                                              1000.00000       1.39900       0.09515      20.90000       0.92630      31.44000      15.79000      52.75000      10.98000       0.21170       0.13780       0.00000       0.00000       0.00000  
                                                                                                                              2000.00000       1.40600       0.09140      20.52000       0.85700      31.02000      16.00000      52.97000      12.21000       0.21190       0.13880       0.00000       0.00000       0.00000  
DSOLMap_930                       6                 C    2000.00000       0.50000       0.50000  WIT_texture                
                                                                                                                                50.00000       1.15400       0.15730      25.28000       3.80000      30.10000      24.78000      44.90000       6.33200       0.21130       0.12620       0.00000       0.00000       0.00000  
                                                                                                                               100.00000       1.16700       0.14890      26.06000       3.54000      30.02000      24.11000      46.06000       6.69500       0.21120       0.12494       0.00000       0.00000       0.00000  
                                                                                                                               300.00000       1.20300       0.14610      20.66000       2.54000      33.78000      23.12000      43.10000       7.29300       0.21060       0.13440       0.00000       0.00000       0.00000  
                                                                                                                               600.00000       1.22600       0.14590      16.00000       2.15600      37.00000      22.39000      40.62000       8.03000       0.20960       0.13800       0.00000       0.00000       0.00000  
                                                                                                                              1000.00000       1.22950       0.14560      15.22000       2.03000      37.34000      22.14000      40.53000       8.80500       0.20950       0.13870       0.00000       0.00000       0.00000  
                                                                                                                              2000.00000       1.23000       0.13990      15.41000       2.40600      36.72000      22.52000      40.75000       9.73000       0.20960       0.13560       0.00000       0.00000       0.00000  
DSOLMap_797                       6                 C    2000.00000       0.50000       0.50000  WIT_texture                
                                                                                                                                50.00000       1.25400       0.15550      23.47000       6.93400      29.72000      24.17000      46.16000      14.44500       0.21090       0.13060       0.00000       0.00000       0.00000  
                                                                                                                               100.00000       1.28800       0.15300      21.28000       5.28000      30.62000      24.14000      44.97000      15.05500       0.21080       0.13100       0.00000       0.00000       0.00000  
                                                                                                                               300.00000       1.33000       0.14700      20.83000       4.41000      30.42000      23.56000      46.16000      16.03000       0.21120       0.13700       0.00000       0.00000       0.00000  
                                                                                                                               600.00000       1.35500       0.14030      17.30000       4.04700      31.66000      23.31000      45.03000      17.58000       0.21080       0.14060       0.00000       0.00000       0.00000  
                                                                                                                              1000.00000       1.37200       0.13920      16.67000       4.11700      31.42000      23.30000      45.28000      18.94000       0.21090       0.14170       0.00000       0.00000       0.00000  
                                                                                                                              2000.00000       1.38100       0.13540      16.19000       4.62000      31.02000      23.53000      45.47000      20.02000       0.21090       0.14310       0.00000       0.00000       0.00000  
DSOLMap_941                       6                 C    2000.00000       0.50000       0.50000  WIT_texture                
                                                                                                                                50.00000       1.18900       0.16640      23.81000       8.16400      30.10000      25.03000      44.75000      13.65000       0.21040       0.12800       0.00000       0.00000       0.00000  
                                                                                                                               100.00000       1.23700       0.16350      22.55000       6.49000      30.48000      24.69000      44.72000      14.30000       0.21040       0.12830       0.00000       0.00000       0.00000  
                                                                                                                               300.00000       1.28200       0.15900      22.39000       5.30000      29.98000      24.05000      46.12000      15.12500       0.21090       0.13380       0.00000       0.00000       0.00000  
                                                                                                                               600.00000       1.31200       0.15200      18.66000       4.90000      31.17000      23.81000      45.00000      16.47000       0.21060       0.13700       0.00000       0.00000       0.00000  
                                                                                                                              1000.00000       1.32700       0.14970      18.17000       4.90200      30.95000      23.75000      45.30000      17.75000       0.21070       0.13810       0.00000       0.00000       0.00000  
                                                                                                                              2000.00000       1.33600       0.14470      17.83000       5.36700      30.58000      23.97000      45.47000      18.78000       0.21070       0.13890       0.00000       0.00000       0.00000  
DSOLMap_782                       6                 C    2000.00000       0.50000       0.50000  WIT_texture                
                                                                                                                                50.00000       1.27700       0.11224      34.94000       2.02700      30.36000      15.13000      54.53000       5.78500       0.21140       0.12006       0.00000       0.00000       0.00000  
                                                                                                                               100.00000       1.29700       0.10986      31.88000       1.79700      31.67000      14.74000      53.60000       6.30000       0.21100       0.12000       0.00000       0.00000       0.00000  
                                                                                                                               300.00000       1.33100       0.10547      22.38000       1.12200      36.25000      13.86000      49.94000       6.79700       0.20960       0.12520       0.00000       0.00000       0.00000  
                                                                                                                               600.00000       1.35200       0.09610      15.63000       0.71800      38.88000      13.58600      47.53000       7.84400       0.20890       0.12830       0.00000       0.00000       0.00000  
                                                                                                                              1000.00000       1.35800       0.09740      14.80500       0.62260      39.03000      13.69500      47.25000       9.16400       0.20890       0.12940       0.00000       0.00000       0.00000  
                                                                                                                              2000.00000       1.36700       0.09400      14.32000       0.55500      38.53000      14.01000      47.44000      10.52000       0.20910       0.13050       0.00000       0.00000       0.00000  
DSOLMap_749                       6                 C    2000.00000       0.50000       0.50000  WIT_texture                
                                                                                                                                50.00000       1.27000       0.11890      26.20000       4.12500      32.00000      18.02000      49.94000      10.18000       0.21060       0.12540       0.00000       0.00000       0.00000  
                                                                                                                               100.00000       1.29700       0.11750      23.36000       3.50200      33.44000      17.83000      49.10000      10.75000       0.21020       0.12490       0.00000       0.00000       0.00000  