sweep.ops: written by SWAT+ editor v3.0.4 on 2024-11-12 23:05 for SWAT+ rev.61.0.1
name                   swp_eff     frac_curb  description
high_eff               0.80000       0.90000  
