tmp.cli: Temperature file names - file written by SWAT+ editor 2024-11-12 22:47:50.458761
filename
chalacotmp.tmp
