topography.hyd: written by SWAT+ editor v3.0.4 on 2024-11-12 23:05 for SWAT+ rev.61.0.1
name                       slp       slp_len       lat_len      dist_cha         depos  
topohru001             0.33069      10.00000      10.00000     121.00000       0.00000  
topohru002             0.16242      10.00000      10.00000     121.00000       0.00000  
topohru003             0.59948      10.00000      10.00000     121.00000       0.00000  
topohru004             0.32632      10.00000      10.00000     121.00000       0.00000  
topohru005             0.16106      10.00000      10.00000     121.00000       0.00000  
topohru006             0.36505      10.00000      10.00000     121.00000       0.00000  
topohru007             0.68772      10.00000      10.00000     121.00000       0.00000  
topohru008             0.69785      10.00000      10.00000     121.00000       0.00000  
topohru009             0.34678      10.00000      10.00000     121.00000       0.00000  
topohru010             0.59653      10.00000      10.00000     121.00000       0.00000  
topohru011             0.37873      10.00000      10.00000     121.00000       0.00000  
topohru012             0.68317      10.00000      10.00000     121.00000       0.00000  
topohru013             0.35585      10.00000      10.00000     121.00000       0.00000  
topohru014             0.34443      10.00000      10.00000     121.00000       0.00000  
topohru015             0.60305      10.00000      10.00000     121.00000       0.00000  
topohru016             0.15535      10.00000      10.00000     121.00000       0.00000  
topohru017             0.62995      10.00000      10.00000     121.00000       0.00000  
topohru018             0.35064      10.00000      10.00000     121.00000       0.00000  
topohru019             0.15909      10.00000      10.00000     121.00000       0.00000  
topohru020             0.37485      10.00000      10.00000     121.00000       0.00000  
topohru021             0.58939      10.00000      10.00000     121.00000       0.00000  
topohru022             0.34183      10.00000      10.00000     121.00000       0.00000  
topohru023             0.58950      10.00000      10.00000     121.00000       0.00000  
topohru024             0.38335      10.00000      10.00000     121.00000       0.00000  
topohru025             0.61900      10.00000      10.00000     121.00000       0.00000  
topohru026             0.34885      10.00000      10.00000     121.00000       0.00000  
topohru027             0.60706      10.00000      10.00000     121.00000       0.00000  
topohru028             0.41797      10.00000      10.00000     121.00000       0.00000  
topohru029             0.58385      10.00000      10.00000     121.00000       0.00000  
topohru030             0.35927      10.00000      10.00000     121.00000       0.00000  
topohru031             0.60881      10.00000      10.00000     121.00000       0.00000  
topohru032             0.39581      10.00000      10.00000     121.00000       0.00000  
topohru033             0.65570      10.00000      10.00000     121.00000       0.00000  
topohru034             0.60484      10.00000      10.00000     121.00000       0.00000  
topohru035             0.35707      10.00000      10.00000     121.00000       0.00000  
topohru036             0.38461      10.00000      10.00000     121.00000       0.00000  
topohru037             0.61405      10.00000      10.00000     121.00000       0.00000  
topohru038             0.35316      10.00000      10.00000     121.00000       0.00000  
topohru039             0.56350      10.00000      10.00000     121.00000       0.00000  
topohru040             0.62349      10.00000      10.00000     121.00000       0.00000  
topohru041             0.37129      10.00000      10.00000     121.00000       0.00000  
topohru042             0.39386      10.00000      10.00000     121.00000       0.00000  
topohru043             0.67373      10.00000      10.00000     121.00000       0.00000  
topohru044             0.73060      10.00000      10.00000     121.00000       0.00000  
topohru045             0.35279      10.00000      10.00000     121.00000       0.00000  
topohru046             0.37829      10.00000      10.00000     121.00000       0.00000  
topohru047             0.62527      10.00000      10.00000     121.00000       0.00000  
topohru048             0.37306      10.00000      10.00000     121.00000       0.00000  
topohru049             0.59511      10.00000      10.00000     121.00000       0.00000  
topohru050             0.35363      10.00000      10.00000     121.00000       0.00000  
topohru051             0.36695      10.00000      10.00000     121.00000       0.00000  
topohru052             0.66106      10.00000      10.00000     121.00000       0.00000  
topohru053             0.37987      10.00000      10.00000     121.00000       0.00000  
topohru054             0.65728      10.00000      10.00000     121.00000       0.00000  
topohru055             0.36691      10.00000      10.00000     121.00000       0.00000  
topohru056             0.65198      10.00000      10.00000     121.00000       0.00000  
topohru057             0.61165      10.00000      10.00000     121.00000       0.00000  
topohru058             0.37569      10.00000      10.00000     121.00000       0.00000  
topohru059             0.69297      10.00000      10.00000     121.00000       0.00000  
topohru060             0.35799      10.00000      10.00000     121.00000       0.00000  
topohru061             0.63058      10.00000      10.00000     121.00000       0.00000  
topohru062             0.35810      10.00000      10.00000     121.00000       0.00000  
topohru063             0.37249      10.00000      10.00000     121.00000       0.00000  
topohru064             0.74164      10.00000      10.00000     121.00000       0.00000  
topohru065             0.35986      10.00000      10.00000     121.00000       0.00000  
topohru066             0.71400      10.00000      10.00000     121.00000       0.00000  
topohru067             0.35519      10.00000      10.00000     121.00000       0.00000  
topohru068             0.61044      10.00000      10.00000     121.00000       0.00000  
topohru069             0.14890      10.00000      10.00000     121.00000       0.00000  
topohru070             0.04461      60.00000      60.00000     121.00000       0.00000  
topohru071             0.36287      10.00000      10.00000     121.00000       0.00000  
topohru072             0.62275      10.00000      10.00000     121.00000       0.00000  
topohru073             0.33628      10.00000      10.00000     121.00000       0.00000  
topohru074             0.14681      10.00000      10.00000     121.00000       0.00000  
topohru075             0.05102      30.00000      30.00000     121.00000       0.00000  
topohru076             0.31199      10.00000      10.00000     121.00000       0.00000  
topohru077             0.14337      10.00000      10.00000     121.00000       0.00000  
topohru078             0.04153      60.00000      60.00000     121.00000       0.00000  
topohru079             0.02727      90.00000      90.00000     121.00000       0.00000  
topohru080             0.30547      10.00000      10.00000     121.00000       0.00000  
topohru081             0.33731      10.00000      10.00000     121.00000       0.00000  
topohru082             0.64271      10.00000      10.00000     121.00000       0.00000  
topohru083             0.57696      10.00000      10.00000     121.00000       0.00000  
topohru084             0.35863      10.00000      10.00000     121.00000       0.00000  
topohru085             0.34907      10.00000      10.00000     121.00000       0.00000  
topohru086             0.64825      10.00000      10.00000     121.00000       0.00000  
topohru087             0.40750      10.00000      10.00000     121.00000       0.00000  
topohru088             0.64222      10.00000      10.00000     121.00000       0.00000  
topohru089             0.34692      10.00000      10.00000     121.00000       0.00000  
topohru090             0.31238      10.00000      10.00000     121.00000       0.00000  
topohru091             0.15989      10.00000      10.00000     121.00000       0.00000  
topohru092             0.33205      10.00000      10.00000     121.00000       0.00000  
topohru093             0.34732      10.00000      10.00000     121.00000       0.00000  
topohru094             0.14468      10.00000      10.00000     121.00000       0.00000  
topohru095             0.65024      10.00000      10.00000     121.00000       0.00000  
topohru096             0.35125      10.00000      10.00000     121.00000       0.00000  
topohru097             0.34429      10.00000      10.00000     121.00000       0.00000  
topohru098             0.52186      10.00000      10.00000     121.00000       0.00000  
topohru099             0.31170      10.00000      10.00000     121.00000       0.00000  
topohru100             0.15544      10.00000      10.00000     121.00000       0.00000  
topohru101             0.04193      60.00000      60.00000     121.00000       0.00000  
topohru102             0.58802      10.00000      10.00000     121.00000       0.00000  
topohru103             0.35465      10.00000      10.00000     121.00000       0.00000  
topohru104             0.04917      60.00000      60.00000     121.00000       0.00000  
topohru105             0.14673      10.00000      10.00000     121.00000       0.00000  
topohru106             0.03539      60.00000      60.00000     121.00000       0.00000  
topohru107             0.27556      10.00000      10.00000     121.00000       0.00000  
topohru108             0.34880      10.00000      10.00000     121.00000       0.00000  
topohru109             0.14557      10.00000      10.00000     121.00000       0.00000  
topohru110             0.04471      60.00000      60.00000     121.00000       0.00000  
topohru111             0.57528      10.00000      10.00000     121.00000       0.00000  
topohru112             0.35593      10.00000      10.00000     121.00000       0.00000  
topohru113             0.33460      10.00000      10.00000     121.00000       0.00000  
topohru114             0.15515      10.00000      10.00000     121.00000       0.00000  
topohru115             0.64200      10.00000      10.00000     121.00000       0.00000  
topohru116             0.35164      10.00000      10.00000     121.00000       0.00000  
topohru117             0.14770      10.00000      10.00000     121.00000       0.00000  
topohru118             0.04183      60.00000      60.00000     121.00000       0.00000  
topohru119             0.35728      10.00000      10.00000     121.00000       0.00000  
topohru120             0.62570      10.00000      10.00000     121.00000       0.00000  
topohru121             0.32811      10.00000      10.00000     121.00000       0.00000  
topohru122             0.15018      10.00000      10.00000     121.00000       0.00000  
topohru123             0.05075      30.00000      30.00000     121.00000       0.00000  
topohru124             0.29386      10.00000      10.00000     121.00000       0.00000  
topohru125             0.03661      60.00000      60.00000     121.00000       0.00000  
topohru126             0.02793      90.00000      90.00000     121.00000       0.00000  
topohru127             0.14311      10.00000      10.00000     121.00000       0.00000  
topohru128             0.14655      10.00000      10.00000     121.00000       0.00000  
topohru129             0.25712      10.00000      10.00000     121.00000       0.00000  
topohru130             0.04446      60.00000      60.00000     121.00000       0.00000  
topohru131             0.14460      10.00000      10.00000     121.00000       0.00000  
topohru132             0.31635      10.00000      10.00000     121.00000       0.00000  
topohru133             0.04262      60.00000      60.00000     121.00000       0.00000  
topohru134             0.11909      10.00000      10.00000     121.00000       0.00000  
topohru135             0.04311      60.00000      60.00000     121.00000       0.00000  
topohru136             0.60967      10.00000      10.00000     121.00000       0.00000  
topohru137             0.33383      10.00000      10.00000     121.00000       0.00000  
topohru138             0.33802      10.00000      10.00000     121.00000       0.00000  
topohru139             0.64368      10.00000      10.00000     121.00000       0.00000  
topohru140             0.36327      10.00000      10.00000     121.00000       0.00000  
topohru141             0.58130      10.00000      10.00000     121.00000       0.00000  
topohru142             0.51898      10.00000      10.00000     121.00000       0.00000  
topohru143             0.31826      10.00000      10.00000     121.00000       0.00000  
topohru144             0.14251      10.00000      10.00000     121.00000       0.00000  
topohru145             0.04405      60.00000      60.00000     121.00000       0.00000  
topohru146             0.13900      10.00000      10.00000     121.00000       0.00000  
topohru147             0.38990      10.00000      10.00000     121.00000       0.00000  
topohru148             0.58104      10.00000      10.00000     121.00000       0.00000  
topohru149             0.07637      30.00000      30.00000     121.00000       0.00000  
topohru150             0.41176      10.00000      10.00000     121.00000       0.00000  
topohru151             0.56877      10.00000      10.00000     121.00000       0.00000  
topohru152             0.13394      10.00000      10.00000     121.00000       0.00000  
topohru153             0.62893      10.00000      10.00000     121.00000       0.00000  
topohru154             0.15682      10.00000      10.00000     121.00000       0.00000  
topohru155             0.34383      10.00000      10.00000     121.00000       0.00000  
topohru156             0.32651      10.00000      10.00000     121.00000       0.00000  
topohru157             0.63159      10.00000      10.00000     121.00000       0.00000  
topohru158             0.18325      10.00000      10.00000     121.00000       0.00000  
topohru159             0.29558      10.00000      10.00000     121.00000       0.00000  
topohru160             0.13889      10.00000      10.00000     121.00000       0.00000  
topohru161             0.69114      10.00000      10.00000     121.00000       0.00000  
topohru162             0.27539      10.00000      10.00000     121.00000       0.00000  
topohru163             0.05555      30.00000      30.00000     121.00000       0.00000  
topohru164             0.15994      10.00000      10.00000     121.00000       0.00000  
topohru165             0.57552      10.00000      10.00000     121.00000       0.00000  
topohru166             0.30932      10.00000      10.00000     121.00000       0.00000  
topohru167             0.06493      30.00000      30.00000     121.00000       0.00000  
topohru168             0.14754      10.00000      10.00000     121.00000       0.00000  
topohru169             0.36462      10.00000      10.00000     121.00000       0.00000  
topohru170             0.84546      10.00000      10.00000     121.00000       0.00000  
topohru171             0.35015      10.00000      10.00000     121.00000       0.00000  
topohru172             0.64245      10.00000      10.00000     121.00000       0.00000  
topohru173             0.66974      10.00000      10.00000     121.00000       0.00000  
topohru174             0.39638      10.00000      10.00000     121.00000       0.00000  
topohru175             0.81966      10.00000      10.00000     121.00000       0.00000  
topohru176             0.36247      10.00000      10.00000     121.00000       0.00000  
topohru177             0.35890      10.00000      10.00000     121.00000       0.00000  
topohru178             0.75112      10.00000      10.00000     121.00000       0.00000  
topohru179             0.36732      10.00000      10.00000     121.00000       0.00000  
topohru180             0.58515      10.00000      10.00000     121.00000       0.00000  
topohru181             0.33341      10.00000      10.00000     121.00000       0.00000  
topohru182             0.62776      10.00000      10.00000     121.00000       0.00000  
topohru183             0.15093      10.00000      10.00000     121.00000       0.00000  
topohru184             0.56373      10.00000      10.00000     121.00000       0.00000  
topohru185             0.35583      10.00000      10.00000     121.00000       0.00000  
topohru186             0.58914      10.00000      10.00000     121.00000       0.00000  
topohru187             0.35949      10.00000      10.00000     121.00000       0.00000  
topohru188             0.34406      10.00000      10.00000     121.00000       0.00000  
topohru189             0.35812      10.00000      10.00000     121.00000       0.00000  
topohru190             0.06551      30.00000      30.00000     121.00000       0.00000  
topohru191             0.04536      60.00000      60.00000     121.00000       0.00000  
topohru192             0.13359      10.00000      10.00000     121.00000       0.00000  
topohru193             0.06646      30.00000      30.00000     121.00000       0.00000  
topohru194             0.13139      10.00000      10.00000     121.00000       0.00000  
topohru195             0.13190      10.00000      10.00000     121.00000       0.00000  
topohru196             0.04808      60.00000      60.00000     121.00000       0.00000  
topohru197             0.32980      10.00000      10.00000     121.00000       0.00000  
topohru198             0.64481      10.00000      10.00000     121.00000       0.00000  
topohru199             0.32615      10.00000      10.00000     121.00000       0.00000  
topohru200             0.15909      10.00000      10.00000     121.00000       0.00000  
topohru201             0.31463      10.00000      10.00000     121.00000       0.00000  
topohru202             0.16379      10.00000      10.00000     121.00000       0.00000  
topohru203             0.03462      60.00000      60.00000     121.00000       0.00000  
topohru204             0.33280      10.00000      10.00000     121.00000       0.00000  
topohru205             0.30764      10.00000      10.00000     121.00000       0.00000  
topohru206             0.31950      10.00000      10.00000     121.00000       0.00000  
topohru207             0.16439      10.00000      10.00000     121.00000       0.00000  
topohru208             0.03744      60.00000      60.00000     121.00000       0.00000  
topohru209             0.15769      10.00000      10.00000     121.00000       0.00000  
topohru210             0.25774      10.00000      10.00000     121.00000       0.00000  
topohru211             0.02836      90.00000      90.00000     121.00000       0.00000  
topohru212             0.04239      60.00000      60.00000     121.00000       0.00000  
topohru213             0.14580      10.00000      10.00000     121.00000       0.00000  
topohru214             0.29000      10.00000      10.00000     121.00000       0.00000  
topohru215             0.66708      10.00000      10.00000     121.00000       0.00000  
topohru216             0.37355      10.00000      10.00000     121.00000       0.00000  
topohru217             0.33890      10.00000      10.00000     121.00000       0.00000  
topohru218             0.15454      10.00000      10.00000     121.00000       0.00000  
topohru219             0.04248      60.00000      60.00000     121.00000       0.00000  
topohru220             0.28846      10.00000      10.00000     121.00000       0.00000  
topohru221             0.15104      10.00000      10.00000     121.00000       0.00000  
topohru222             0.03681      60.00000      60.00000     121.00000       0.00000  
topohru223             0.02623      90.00000      90.00000     121.00000       0.00000  
topohru224             0.29234      10.00000      10.00000     121.00000       0.00000  
topohru225             0.32250      10.00000      10.00000     121.00000       0.00000  
topohru226             0.14480      10.00000      10.00000     121.00000       0.00000  
topohru227             0.03930      60.00000      60.00000     121.00000       0.00000  
topohru228             0.03302      60.00000      60.00000     121.00000       0.00000  
topohru229             0.14414      10.00000      10.00000     121.00000       0.00000  
topohru230             0.32603      10.00000      10.00000     121.00000       0.00000  
topohru231             0.02748      90.00000      90.00000     121.00000       0.00000  
topohru232             0.31631      10.00000      10.00000     121.00000       0.00000  
topohru233             0.84474      10.00000      10.00000     121.00000       0.00000  
topohru234             0.33941      10.00000      10.00000     121.00000       0.00000  
topohru235             0.72228      10.00000      10.00000     121.00000       0.00000  
topohru236             0.33935      10.00000      10.00000     121.00000       0.00000  
topohru237             0.85942      10.00000      10.00000     121.00000       0.00000  
topohru238             0.32566      10.00000      10.00000     121.00000       0.00000  
topohru239             0.34584      10.00000      10.00000     121.00000       0.00000  
topohru240             0.73455      10.00000      10.00000     121.00000       0.00000  
topohru241             0.15138      10.00000      10.00000     121.00000       0.00000  
topohru242             0.58112      10.00000      10.00000     121.00000       0.00000  
topohru243             0.36306      10.00000      10.00000     121.00000       0.00000  
topohru244             0.03257      60.00000      60.00000     121.00000       0.00000  
topohru245             0.59148      10.00000      10.00000     121.00000       0.00000  
topohru246             0.38680      10.00000      10.00000     121.00000       0.00000  
topohru247             0.02338      90.00000      90.00000     121.00000       0.00000  
topohru248             0.35903      10.00000      10.00000     121.00000       0.00000  
topohru249             0.02802      90.00000      90.00000     121.00000       0.00000  
topohru250             0.34073      10.00000      10.00000     121.00000       0.00000  
topohru251             0.03240      60.00000      60.00000     121.00000       0.00000  
topohru252             0.03723      60.00000      60.00000     121.00000       0.00000  
topohru253             0.30137      10.00000      10.00000     121.00000       0.00000  
topohru254             0.14784      10.00000      10.00000     121.00000       0.00000  
topohru255             0.29779      10.00000      10.00000     121.00000       0.00000  
topohru256             0.14071      10.00000      10.00000     121.00000       0.00000  
topohru257             0.05198      30.00000      30.00000     121.00000       0.00000  
topohru258             0.27789      10.00000      10.00000     121.00000       0.00000  
topohru259             0.14163      10.00000      10.00000     121.00000       0.00000  
topohru260             0.04283      60.00000      60.00000     121.00000       0.00000  
topohru261             0.39032      10.00000      10.00000     121.00000       0.00000  
topohru262             0.59824      10.00000      10.00000     121.00000       0.00000  
topohru263             0.02861      90.00000      90.00000     121.00000       0.00000  
topohru264             0.35078      10.00000      10.00000     121.00000       0.00000  
topohru265             0.63530      10.00000      10.00000     121.00000       0.00000  
topohru266             0.02283      90.00000      90.00000     121.00000       0.00000  
topohru267             0.35934      10.00000      10.00000     121.00000       0.00000  
topohru268             0.02372      90.00000      90.00000     121.00000       0.00000  
topohru269             0.33577      10.00000      10.00000     121.00000       0.00000  
topohru270             0.02312      90.00000      90.00000     121.00000       0.00000  
topohru271             0.14290      10.00000      10.00000     121.00000       0.00000  
topohru272             0.03156      60.00000      60.00000     121.00000       0.00000  
topohru273             0.31880      10.00000      10.00000     121.00000       0.00000  
topohru274             0.37915      10.00000      10.00000     121.00000       0.00000  
topohru275             0.58618      10.00000      10.00000     121.00000       0.00000  
topohru276             0.36387      10.00000      10.00000     121.00000       0.00000  
topohru277             0.03467      60.00000      60.00000     121.00000       0.00000  
topohru278             0.58592      10.00000      10.00000     121.00000       0.00000  
topohru279             0.36133      10.00000      10.00000     121.00000       0.00000  
topohru280             0.01420      90.00000      90.00000     121.00000       0.00000  
topohru281             0.14213      10.00000      10.00000     121.00000       0.00000  
topohru282             0.32156      10.00000      10.00000     121.00000       0.00000  
topohru283             0.13836      10.00000      10.00000     121.00000       0.00000  
topohru284             0.03228      60.00000      60.00000     121.00000       0.00000  
topohru285             0.63621      10.00000      10.00000     121.00000       0.00000  
topohru286             0.30258      10.00000      10.00000     121.00000       0.00000  
topohru287             0.14304      10.00000      10.00000     121.00000       0.00000  
topohru288             0.04076      60.00000      60.00000     121.00000       0.00000  
topohru289             0.01959      90.00000      90.00000     121.00000       0.00000  
topohru290             0.01952      90.00000      90.00000     121.00000       0.00000  
topohru291             0.01889      90.00000      90.00000     121.00000       0.00000  
topohru292             0.04159      60.00000      60.00000     121.00000       0.00000  
topohru293             0.13730      10.00000      10.00000     121.00000       0.00000  
topohru294             0.31833      10.00000      10.00000     121.00000       0.00000  
topohru295             0.27307      10.00000      10.00000     121.00000       0.00000  
topohru296             0.02587      90.00000      90.00000     121.00000       0.00000  
topohru297             0.02755      90.00000      90.00000     121.00000       0.00000  
topohru298             0.29934      10.00000      10.00000     121.00000       0.00000  
topohru299             0.04245      60.00000      60.00000     121.00000       0.00000  
topohru300             0.35943      10.00000      10.00000     121.00000       0.00000  
topohru301             0.61836      10.00000      10.00000     121.00000       0.00000  
topohru302             0.57613      10.00000      10.00000     121.00000       0.00000  
topohru303             0.37242      10.00000      10.00000     121.00000       0.00000  
topohru304             0.04028      60.00000      60.00000     121.00000       0.00000  
topohru305             0.31643      10.00000      10.00000     121.00000       0.00000  
topohru306             0.36682      10.00000      10.00000     121.00000       0.00000  
topohru307             0.62705      10.00000      10.00000     121.00000       0.00000  
topohru308             0.63020      10.00000      10.00000     121.00000       0.00000  
topohru309             0.36930      10.00000      10.00000     121.00000       0.00000  
topohru310             0.03771      60.00000      60.00000     121.00000       0.00000  
topohru311             0.36880      10.00000      10.00000     121.00000       0.00000  
topohru312             0.03462      60.00000      60.00000     121.00000       0.00000  
topohru313             0.33714      10.00000      10.00000     121.00000       0.00000  
topohru314             0.02823      90.00000      90.00000     121.00000       0.00000  
topohru315             0.38701      10.00000      10.00000     121.00000       0.00000  
topohru316             0.55480      10.00000      10.00000     121.00000       0.00000  
topohru317             0.03597      60.00000      60.00000     121.00000       0.00000  
topohru318             0.32670      10.00000      10.00000     121.00000       0.00000  
topohru319             0.03852      60.00000      60.00000     121.00000       0.00000  
topohru320             0.29655      10.00000      10.00000     121.00000       0.00000  
topohru321             0.05098      30.00000      30.00000     121.00000       0.00000  
topohru322             0.14256      10.00000      10.00000     121.00000       0.00000  
topohru323             0.10122      10.00000      10.00000     121.00000       0.00000  
topohru324             0.28863      10.00000      10.00000     121.00000       0.00000  
topohru325             0.02963      90.00000      90.00000     121.00000       0.00000  
topohru326             0.31389      10.00000      10.00000     121.00000       0.00000  
topohru327             0.03427      60.00000      60.00000     121.00000       0.00000  
topohru328             0.03942      60.00000      60.00000     121.00000       0.00000  
topohru329             0.61116      10.00000      10.00000     121.00000       0.00000  
topohru330             0.38952      10.00000      10.00000     121.00000       0.00000  
topohru331             0.03100      60.00000      60.00000     121.00000       0.00000  
topohru332             0.60392      10.00000      10.00000     121.00000       0.00000  
topohru333             0.35276      10.00000      10.00000     121.00000       0.00000  
topohru334             0.04243      60.00000      60.00000     121.00000       0.00000  
topohru335             0.38336      10.00000      10.00000     121.00000       0.00000  