aquifer.con: written by SWAT+ editor v3.0.4 on 2024-12-06 20:47 for SWAT+ rev.61.0.1
      id  name                gis_id          area           lat           lon          elev       aqu               wst       cst      ovfl      rule   out_tot       obj_typ    obj_id       hyd_typ          frac  
       1  aqu0010                 10   12718.62000      -4.77109     -80.22784     182.00000         1      s5037s79792w         0         0         0         2           sdc        56           tot       1.00000           aqu       110           rhg       1.00000  
       2  aqu0020                 20   13507.56000      -4.82593     -80.31253     168.00000         2      s5167s80617w         0         0         0         2           sdc        48           tot       1.00000           aqu       110           rhg       1.00000  
       3  aqu0030                 30    5115.15000      -4.80406     -80.15026     528.00000         3      s5037s79792w         0         0         0         2           sdc        63           tot       1.00000           aqu       110           rhg       1.00000  
       4  aqu0040                 40    6803.19000      -4.85748     -80.35974     107.00000         4      s5167s80617w         0         0         0         2           sdc        50           tot       1.00000           aqu       110           rhg       1.00000  
       5  aqu0050                 50    7145.82000      -4.83166     -80.11414     426.00000         5      s5037s79792w         0         0         0         2           sdc        44           tot       1.00000           aqu       110           rhg       1.00000  
       6  aqu0060                 60    8029.53000      -4.88009     -80.25948     108.00000         6      s5167s80617w         0         0         0         2           sdc        51           tot       1.00000           aqu       110           rhg       1.00000  
       7  aqu0070                 70    6822.63000      -4.89197     -80.38705      68.00000         7      s5167s80617w         0         0         0         2           sdc        35           tot       1.00000           aqu       110           rhg       1.00000  
       8  aqu0080                 80    6084.72000      -4.86648     -80.52272     119.00000         8      s5167s80617w         0         0         0         2           sdc        79           tot       1.00000           aqu       110           rhg       1.00000  
       9  aqu0090                 90    5651.37000      -4.86924     -80.44150      90.00000         9      s5167s80617w         0         0         0         2           sdc        75           tot       1.00000           aqu       110           rhg       1.00000  
      10  aqu0100                100   12571.20000      -4.95289     -80.47725      52.00000        10      s5167s80617w         0         0         0         2           sdc        29           tot       1.00000           aqu       110           rhg       1.00000  
      11  aqu0110                110   18695.61000      -4.92861     -80.10223     290.00000        11      s5037s79792w         0         0         0         2           sdc       172           tot       1.00000           aqu       110           rhg       1.00000  
      12  aqu0120                120    8324.37000      -4.89659     -80.15746     151.00000        12      s5037s79792w         0         0         0         2           sdc        72           tot       1.00000           aqu       110           rhg       1.00000  
      13  aqu0130                130     465.75000      -4.86106     -80.21450     120.00000        13      s5037s79792w         0         0         0         2           sdc        53           tot       1.00000           aqu       110           rhg       1.00000  
      14  aqu0140                140   19209.96000      -4.96070     -80.00039    1040.00000        14      s5037s79792w         0         0         0         2           sdc       346           tot       1.00000           aqu       110           rhg       1.00000  
      15  aqu0150                150    3115.26000      -4.88837     -80.20501     107.00000        15      s5037s79792w         0         0         0         2           sdc        41           tot       1.00000           aqu       110           rhg       1.00000  
      16  aqu0160                160    3363.93000      -4.93351     -80.31046      65.00000        16      s5167s80617w         0         0         0         2           sdc        39           tot       1.00000           aqu       110           rhg       1.00000  
      17  aqu0170                170   16122.24000      -4.97192     -80.57602      41.00000        17      s5167s80617w         0         0         0         2           sdc       143           tot       1.00000           aqu       110           rhg       1.00000  
      18  aqu0180                180   14874.03000      -4.99776     -80.10010     276.00000        18      s5037s79792w         0         0         0         2           sdc       165           tot       1.00000           aqu       110           rhg       1.00000  
      19  aqu0190                190     457.65000      -4.92292     -80.42111      57.00000        19      s5167s80617w         0         0         0         2           sdc        34           tot       1.00000           aqu       110           rhg       1.00000  
      20  aqu0200                200     607.50000      -4.93502     -80.35044      59.00000        20      s5167s80617w         0         0         0         2           sdc        38           tot       1.00000           aqu       110           rhg       1.00000  
      21  aqu0210                210    1286.28000      -4.95346     -80.26823      72.00000        21      s5167s80617w         0         0         0         2           sdc       163           tot       1.00000           aqu       110           rhg       1.00000  
      22  aqu0220                220      25.92000      -4.93265     -80.42497      55.00000        22      s5167s80617w         0         0         0         2           sdc        45           tot       1.00000           aqu       110           rhg       1.00000  
      23  aqu0230                230    4771.71000      -4.98188     -80.37475      85.00000        23      s5167s80617w         0         0         0         2           sdc        46           tot       1.00000           aqu       110           rhg       1.00000  
      24  aqu0240                240    6580.44000      -5.01063     -80.43482     149.00000        24      s5167s80617w         0         0         0         2           sdc        61           tot       1.00000           aqu       110           rhg       1.00000  
      25  aqu0250                250   24217.38000      -5.03158     -79.98944     870.00000        25      s5037s79792w         0         0         0         2           sdc       333           tot       1.00000           aqu       110           rhg       1.00000  
      26  aqu0260                260   14972.04000      -5.00974     -80.25336      89.00000        26      s5167s80617w         0         0         0         2           sdc       151           tot       1.00000           aqu       110           rhg       1.00000  
      27  aqu0270                270   40176.81000      -5.14044     -80.70811      47.00000        27      s5167s80617w         0         0         0         2           sdc       739           tot       1.00000           aqu       110           rhg       1.00000  
      28  aqu0280                280   20313.99000      -5.07100     -79.88305     941.00000        28      s5037s79792w         0         0         0         2           sdc       573           tot       1.00000           aqu       110           rhg       1.00000  
      29  aqu0290                290    2146.50000      -4.98736     -80.31167     102.00000        29      s5167s80617w         0         0         0         2           sdc        40           tot       1.00000           aqu       110           rhg       1.00000  
      30  aqu0300                300    9259.92000      -5.03321     -80.55851      69.00000        30      s5167s80617w         0         0         0         2           sdc       202           tot       1.00000           aqu       110           rhg       1.00000  
      31  aqu0310                310    9921.69000      -5.08563     -80.39381     198.00000        31      s5167s80617w         0         0         0         2           sdc       174           tot       1.00000           aqu       110           rhg       1.00000  
      32  aqu0320                320   15868.71000      -5.08709     -79.80432    1397.00000        32      s5037s79792w         0         0         0         2           sdc       362           tot       1.00000           aqu       110           rhg       1.00000  
      33  aqu0330                330    5215.59000      -5.05760     -80.35265     160.00000        33      s5167s80617w         0         0         0         2           sdc       175           tot       1.00000           aqu       110           rhg       1.00000  
      34  aqu0340                340     276.21000      -5.03732     -80.20287      82.00000        34      s5037s79792w         0         0         0         2           sdc       157           tot       1.00000           aqu       110           rhg       1.00000  
      35  aqu0350                350    1406.97000      -5.06253     -80.21795      81.00000        35      s5167s80617w         0         0         0         2           sdc       158           tot       1.00000           aqu       110           rhg       1.00000  
      36  aqu0360                360   10968.21000      -5.11249     -80.52231     148.00000        36      s5167s80617w         0         0         0         2           sdc       353           tot       1.00000           aqu       110           rhg       1.00000  
      37  aqu0370                370   10041.57000      -5.10889     -80.00896     372.00000        37      s5037s79792w         0         0         0         2           sdc       350           tot       1.00000           aqu       110           rhg       1.00000  
      38  aqu0380                380    5335.47000      -5.08280     -80.55850      68.00000        38      s5167s80617w         0         0         0         2           sdc       305           tot       1.00000           aqu       110           rhg       1.00000  
      39  aqu0390                390    3646.62000      -5.10020     -80.18984      86.00000        39      s5037s79792w         0         0         0         2           sdc       161           tot       1.00000           aqu       110           rhg       1.00000  
      40  aqu0400                400    5691.06000      -5.09973     -80.29914     155.00000        40      s5167s80617w         0         0         0         2           sdc       160           tot       1.00000           aqu       110           rhg       1.00000  
      41  aqu0410                410     153.09000      -5.08425     -80.21084      81.00000        41      s5167s80617w         0         0         0         2           sdc       159           tot       1.00000           aqu       110           rhg       1.00000  
      42  aqu0420                420   17292.69000      -5.15765     -79.77824    1095.00000        42      s5250s79717w         0         0         0         2           sdc       383           tot       1.00000           aqu       110           rhg       1.00000  
      43  aqu0430                430   26194.59000      -5.19143     -80.29757     186.00000        43      s5167s80617w         0         0         0         2           sdc       164           tot       1.00000           aqu       110           rhg       1.00000  
      44  aqu0440                440   23583.96000      -5.18683     -79.60825    2044.00000        44      s5250s79717w         0         0         0         2           sdc       544           tot       1.00000           aqu       110           rhg       1.00000  
      45  aqu0450                450    7939.62000      -5.14851     -80.48291     168.00000        45      s5167s80617w         0         0         0         2           sdc       390           tot       1.00000           aqu       110           rhg       1.00000  
      46  aqu0460                460    1635.39000      -5.13281     -80.16010      86.00000        46      s5037s79792w         0         0         0         2           sdc       310           tot       1.00000           aqu       110           rhg       1.00000  
      47  aqu0470                470    5584.14000      -5.14858     -80.61525      38.00000        47      s5167s80617w         0         0         0         2           sdc       301           tot       1.00000           aqu       110           rhg       1.00000  
      48  aqu0480                480   10240.83000      -5.17684     -79.69128     975.00000        48      s5250s79717w         0         0         0         2           sdc       587           tot       1.00000           aqu       110           rhg       1.00000  
      49  aqu0490                490     737.91000      -5.11980     -80.18117      89.00000        49      s5037s79792w         0         0         0         2           sdc       309           tot       1.00000           aqu       110           rhg       1.00000  
      50  aqu0500                500   21494.97000      -5.25445     -80.22870     183.00000        50      s5167s80617w         0         0         0         2           sdc       339           tot       1.00000           aqu       110           rhg       1.00000  
      51  aqu0510                510   11035.44000      -5.16909     -80.00684     127.00000        51      s5037s79792w         0         0         0         2           sdc       322           tot       1.00000           aqu       110           rhg       1.00000  
      52  aqu0520                520    2520.72000      -5.14075     -80.12897      93.00000        52      s5037s79792w         0         0         0         2           sdc       313           tot       1.00000           aqu       110           rhg       1.00000  
      53  aqu0530                530    7686.09000      -5.22474     -80.66304      30.00000        53      s5167s80617w         0         0         0         2           sdc       733           tot       1.00000           aqu       110           rhg       1.00000  
      54  aqu0540                540   22603.86000      -5.24276     -80.86117      62.00000        54      s5167s80617w         0         0         0         2           sdc       751           tot       1.00000           aqu       110           rhg       1.00000  
      55  aqu0550                550    8741.52000      -5.25359     -80.78641      65.00000        55      s5167s80617w         0         0         0         2           sdc       758           tot       1.00000           aqu       110           rhg       1.00000  
      56  aqu0560                560    6028.02000      -5.19458     -80.13040     109.00000        56      s5037s79792w         0         0         0         2           sdc       317           tot       1.00000           aqu       110           rhg       1.00000  
      57  aqu0570                570    5465.07000      -5.19484     -80.52570     124.00000        57      s5167s80617w         0         0         0         2           sdc       574           tot       1.00000           aqu       110           rhg       1.00000  
      58  aqu0580                580   14001.66000      -5.21476     -80.48384     166.00000        58      s5167s80617w         0         0         0         2           sdc       519           tot       1.00000           aqu       110           rhg       1.00000  
      59  aqu0590                590    3150.09000      -5.18954     -79.92000     164.00000        59      s5037s79792w         0         0         0         2           sdc       572           tot       1.00000           aqu       110           rhg       1.00000  
      60  aqu0600                600     188.73000      -5.17661     -80.07875      94.00000        60      s5037s79792w         0         0         0         2           sdc       321           tot       1.00000           aqu       110           rhg       1.00000  
      61  aqu0610                610   12117.60000      -5.25729     -80.11721     124.00000        61      s5037s79792w         0         0         0         2           sdc       371           tot       1.00000           aqu       110           rhg       1.00000  
      62  aqu0620                620    5435.91000      -5.24814     -80.04192     107.00000        62      s5250s79717w         0         0         0         2           sdc       330           tot       1.00000           aqu       110           rhg       1.00000  
      63  aqu0630                630     785.70000      -5.20396     -80.59611      37.00000        63      s5167s80617w         0         0         0         2           sdc       518           tot       1.00000           aqu       110           rhg       1.00000  
      64  aqu0640                640     722.52000      -5.22086     -80.62017      30.00000        64      s5167s80617w         0         0         0         2           sdc       517           tot       1.00000           aqu       110           rhg       1.00000  
      65  aqu0650                650    7985.79000      -5.23032     -79.87808     319.00000        65      s5250s79717w         0         0         0         2           sdc       613           tot       1.00000           aqu       110           rhg       1.00000  
      66  aqu0660                660     306.18000      -5.21417     -79.98246     117.00000        66      s5037s79792w         0         0         0         2           sdc       567           tot       1.00000           aqu       110           rhg       1.00000  
      67  aqu0670                670    8001.18000      -5.25347     -79.77578     437.00000        67      s5250s79717w         0         0         0         2           sdc       617           tot       1.00000           aqu       110           rhg       1.00000  
      68  aqu0680                680   12896.82000      -5.28371     -80.92726      87.00000        68      s5517s80833w         0         0         0         2           sdc       779           tot       1.00000           aqu       110           rhg       1.00000  
      69  aqu0690                690    2199.15000      -5.24143     -79.98102     111.00000        69      s5250s79717w         0         0         0         2           sdc       523           tot       1.00000           aqu       110           rhg       1.00000  
      70  aqu0700                700   15971.58000      -5.31555     -79.71940     243.00000        70      s5250s79717w         0         0         0         2           sdc       535           tot       1.00000           aqu       110           rhg       1.00000  
      71  aqu0710                710   10215.72000      -5.28400     -79.94503     128.00000        71      s5250s79717w         0         0         0         2           sdc       525           tot       1.00000           aqu       110           rhg       1.00000  
      72  aqu0720                720    7991.46000      -5.29142     -80.64189      24.00000        72      s5167s80617w         0         0         0         2           sdc       778           tot       1.00000           aqu       110           rhg       1.00000  
      73  aqu0730                730    6179.49000      -5.33704     -80.91967      64.00000        73      s5517s80833w         0         0         0         2           sdc       774           tot       1.00000           aqu       110           rhg       1.00000  
      74  aqu0740                740     711.99000      -5.26610     -79.67348     436.00000        74      s5250s79717w         0         0         0         2           sdc       543           tot       1.00000           aqu       110           rhg       1.00000  
      75  aqu0750                750    6697.08000      -5.31610     -79.87190     501.00000        75      s5250s79717w         0         0         0         2           sdc       530           tot       1.00000           aqu       110           rhg       1.00000  
      76  aqu0760                760    6732.72000      -5.30551     -79.62255    1152.00000        76      s5250s79717w         0         0         0         2           sdc       622           tot       1.00000           aqu       110           rhg       1.00000  
      77  aqu0770                770    5373.54000      -5.31625     -80.02050     120.00000        77      s5250s79717w         0         0         0         2           sdc       557           tot       1.00000           aqu       110           rhg       1.00000  
      78  aqu0780                780    3065.04000      -5.31126     -79.82566     180.00000        78      s5250s79717w         0         0         0         2           sdc       533           tot       1.00000           aqu       110           rhg       1.00000  
      79  aqu0790                790    2421.09000      -5.31573     -80.08952     143.00000        79      s5250s79717w         0         0         0         2           sdc       552           tot       1.00000           aqu       110           rhg       1.00000  
      80  aqu0800                800    6560.19000      -5.34399     -80.21264     209.00000        80      s5167s80617w         0         0         0         2           sdc       564           tot       1.00000           aqu       110           rhg       1.00000  
      81  aqu0810                810   16780.77000      -5.42634     -80.84385      34.00000        81      s5517s80833w         0         0         0         2           sdc       915           tot       1.00000           aqu       110           rhg       1.00000  
      82  aqu0820                820   18879.48000      -5.38247     -79.63306    1244.00000        82      s5250s79717w         0         0         0         2           sdc       799           tot       1.00000           aqu       110           rhg       1.00000  
      83  aqu0830                830   23509.44000      -5.43355     -79.89006     443.00000        83      s5250s79717w         0         0         0         2           sdc       568           tot       1.00000           aqu       110           rhg       1.00000  
      84  aqu0840                840     847.26000      -5.34207     -80.77467      13.00000        84      s5517s80833w         0         0         0         2           sdc       737           tot       1.00000           aqu       110           rhg       1.00000  
      85  aqu0850                850    7022.70000      -5.36021     -80.17955     208.00000        85      s5250s79717w         0         0         0         2           sdc       597           tot       1.00000           aqu       110           rhg       1.00000  
      86  aqu0860                860    6360.12000      -5.40095     -80.75087      16.00000        86      s5517s80833w         0         0         0         2           sdc       914           tot       1.00000           aqu       110           rhg       1.00000  
      87  aqu0870                870   11551.41000      -5.38729     -79.80164     178.00000        87      s5250s79717w         0         0         0         2           sdc       547           tot       1.00000           aqu       110           rhg       1.00000  
      88  aqu0880                880   10878.30000      -5.38595     -80.13488     196.00000        88      s5250s79717w         0         0         0         2           sdc       563           tot       1.00000           aqu       110           rhg       1.00000  
      89  aqu0890                890    1163.16000      -5.35552     -80.00958     128.00000        89      s5250s79717w         0         0         0         2           sdc       570           tot       1.00000           aqu       110           rhg       1.00000  
      90  aqu0900                900    8836.29000      -5.44039     -80.67766      13.00000        90      s5517s80833w         0         0         0         2           sdc       910           tot       1.00000           aqu       110           rhg       1.00000  
      91  aqu0910                910    6372.27000      -5.41086     -80.71643      14.00000        91      s5517s80833w         0         0         0         2           sdc       937           tot       1.00000           aqu       110           rhg       1.00000  
      92  aqu0920                920   18705.33000      -5.46750     -79.98355     169.00000        92      s5250s79717w         0         0         0         2           sdc       766           tot       1.00000           aqu       110           rhg       1.00000  
      93  aqu0930                930    2484.27000      -5.37731     -80.80217      15.00000        93      s5517s80833w         0         0         0         2           sdc       760           tot       1.00000           aqu       110           rhg       1.00000  
      94  aqu0940                940     866.70000      -5.38707     -80.01149     135.00000        94      s5250s79717w         0         0         0         2           sdc       759           tot       1.00000           aqu       110           rhg       1.00000  
      95  aqu0950                950      75.33000      -5.36653     -80.77282      13.00000        95      s5517s80833w         0         0         0         2           sdc       750           tot       1.00000           aqu       110           rhg       1.00000  
      96  aqu0960                960   13833.18000      -5.43913     -80.12831     201.00000        96      s5250s79717w         0         0         0         2           sdc       767           tot       1.00000           aqu       110           rhg       1.00000  
      97  aqu0970                970   14694.21000      -5.48846     -80.06168     197.00000        97      s5250s79717w         0         0         0         2           sdc       770           tot       1.00000           aqu       110           rhg       1.00000  
      98  aqu0980                980   12706.47000      -5.43976     -79.61858     882.00000        98      s5566s79525w         0         0         0         2           sdc       752           tot       1.00000           aqu       110           rhg       1.00000  
      99  aqu0990                990    6897.96000      -5.47192     -79.53349    1512.00000        99      s5566s79525w         0         0         0         2           sdc       933           tot       1.00000           aqu       110           rhg       1.00000  
     100  aqu1000               1000     149.85000      -5.43126     -79.76429     202.00000       100      s5250s79717w         0         0         0         2           sdc       747           tot       1.00000           aqu       110           rhg       1.00000  
     101  aqu1010               1010     771.93000      -5.44657     -79.76019     219.00000       101      s5250s79717w         0         0         0         2           sdc       748           tot       1.00000           aqu       110           rhg       1.00000  
     102  aqu1020               1020    7272.99000      -5.48377     -79.71185     294.00000       102      s5566s79525w         0         0         0         2           sdc       749           tot       1.00000           aqu       110           rhg       1.00000  
     103  aqu1030               1030    7227.63000      -5.50705     -79.78908     317.00000       103      s5250s79717w         0         0         0         2           sdc       782           tot       1.00000           aqu       110           rhg       1.00000  
     104  aqu1040               1040    6109.02000      -5.52120     -80.74454      14.00000       104      s5517s80833w         0         0         0         2           sdc       906           tot       1.00000           aqu       110           rhg       1.00000  
     105  aqu1050               1050   15187.50000      -5.54076     -79.60397    1184.00000       105      s5566s79525w         0         0         0         2           sdc       927           tot       1.00000           aqu       110           rhg       1.00000  
     106  aqu1060               1060    5748.57000      -5.51599     -79.51451    1851.00000       106      s5566s79525w         0         0         0         2           sdc       941           tot       1.00000           aqu       110           rhg       1.00000  
     107  aqu1070               1070    3896.10000      -5.54532     -80.78805      11.00000       107      s5517s80833w         0         0         0         2           sdc       902           tot       1.00000           aqu       110           rhg       1.00000  
     108  aqu1080               1080   29383.56000      -5.60785     -79.65909     650.00000       108      s5566s79525w         0         0         0         2           sdc       921           tot       1.00000           aqu       110           rhg       1.00000  
     109  aqu1090               1090    4590.27000      -5.57756     -80.83968       5.00000       109      s5517s80833w         0         0         0         2           sdc      1012           tot       1.00000           aqu       110           rhg       1.00000  
     110  aqu_deep0010            10  943260.39000      -5.20680     -80.17590     395.72049       110      s5037s79792w         0         0         0         0  
