chandeg.con: written by SWAT+ editor v3.0.4 on 2024-12-06 20:47 for SWAT+ rev.61.0.1
      id  name                gis_id          area           lat           lon          elev      lcha               wst       cst      ovfl      rule   out_tot       obj_typ    obj_id       hyd_typ          frac  
       1  cha0001                  1    3474.90000      -4.82754     -80.11130             0         1      s5037s79792w         0         0         0         1           sdc        44           tot       1.00000  
       2  cha0002                  2    2501.28000      -4.82264     -80.09995             0         2      s5037s79792w         0         0         0         1           sdc         1           tot       1.00000  
       3  cha0003                  3    1718.82000      -4.82710     -80.09102             0         3      s5037s79792w         0         0         0         1           sdc         2           tot       1.00000  
       4  cha0004                  4     537.84000      -4.83446     -80.11657             0         4      s5037s79792w         0         0         0         1           sdc        44           tot       1.00000  
       5  cha0005                  5    5895.18000      -4.80244     -80.22171             0         5      s5037s79792w         0         0         0         1           sdc        62           tot       1.00000  
       6  cha0006                  6    4858.38000      -4.77720     -80.21971             0         6      s5037s79792w         0         0         0         1           sdc         5           tot       1.00000  
       7  cha0007                  7    3218.13000      -4.75521     -80.21933             0         7      s5037s79792w         0         0         0         1           sdc         6           tot       1.00000  
       8  cha0008                  8    3988.44000      -4.80377     -80.32802             0         8      s5167s80617w         0         0         0         1           sdc        64           tot       1.00000  
       9  cha0009                  9    4983.12000      -4.80571     -80.23875             0         9      s5037s79792w         0         0         0         1           sdc        62           tot       1.00000  
      10  cha0010                 10    3040.74000      -4.79393     -80.25783             0        10      s5167s80617w         0         0         0         1           sdc         9           tot       1.00000  
      11  cha0011                 11    2147.31000      -4.79522     -80.32803             0        11      s5167s80617w         0         0         0         1           sdc         8           tot       1.00000  
      12  cha0012                 12    1645.11000      -4.78335     -80.26068             0        12      s5167s80617w         0         0         0         1           sdc        10           tot       1.00000  
      13  cha0013                 13     554.04000      -4.82223     -80.10198             0        13      s5037s79792w         0         0         0         1           sdc         1           tot       1.00000  
      14  cha0014                 14     782.46000      -4.82478     -80.18029             0        14      s5037s79792w         0         0         0         1           sdc        63           tot       1.00000  
      15  cha0015                 15     716.04000      -4.81570     -80.08819             0        15      s5037s79792w         0         0         0         1           sdc         2           tot       1.00000  
      16  cha0016                 16    3722.76000      -4.81374     -80.14297             0        16      s5037s79792w         0         0         0         1           sdc        63           tot       1.00000  
      17  cha0017                 17     797.04000      -4.80254     -80.31991             0        17      s5167s80617w         0         0         0         1           sdc        64           tot       1.00000  
      18  cha0018                 18     526.50000      -4.79144     -80.21847             0        18      s5037s79792w         0         0         0         1           sdc         5           tot       1.00000  
      19  cha0019                 19     677.97000      -4.78382     -80.32642             0        19      s5167s80617w         0         0         0         1           sdc        11           tot       1.00000  
      20  cha0020                 20    1385.91000      -4.78220     -80.32886             0        20      s5167s80617w         0         0         0         1           sdc        11           tot       1.00000  
      21  cha0021                 21    1271.70000      -4.78051     -80.27286             0        21      s5167s80617w         0         0         0         1           sdc        10           tot       1.00000  
      22  cha0022                 22     961.47000      -4.78130     -80.24851             0        22      s5037s79792w         0         0         0         1           sdc         9           tot       1.00000  
      23  cha0023                 23     752.49000      -4.76991     -80.26029             0        23      s5167s80617w         0         0         0         1           sdc        12           tot       1.00000  
      24  cha0024                 24    1626.48000      -4.75397     -80.19945             0        24      s5037s79792w         0         0         0         1           sdc         7           tot       1.00000  
      25  cha0025                 25     599.40000      -4.76870     -80.26476             0        25      s5167s80617w         0         0         0         1           sdc        12           tot       1.00000  
      26  cha0026                 26     867.51000      -4.76091     -80.21810             0        26      s5037s79792w         0         0         0         1           sdc         6           tot       1.00000  
      27  cha0027                 27    1675.08000      -4.77811     -80.31831             0        27      s5167s80617w         0         0         0         1           sdc         8           tot       1.00000  
      28  cha0028                 28    1006.83000      -4.73934     -80.21772             0        28      s5037s79792w         0         0         0         1           sdc         7           tot       1.00000  
      29  cha0029                 29  698363.39200      -4.93500     -80.50770             0        29      s5167s80617w         0         0         0         1           sdc       149           tot       1.00000  
      30  cha0030                 30  695640.16640      -4.92970     -80.49674             0        30      s5167s80617w         0         0         0         1           sdc        29           tot       1.00000  
      31  cha0031                 31  694380.59520      -4.94028     -80.48293             0        31      s5167s80617w         0         0         0         1           sdc        30           tot       1.00000  
      32  cha0032                 32  688719.51360      -4.94067     -80.46142             0        32      s5167s80617w         0         0         0         1           sdc        31           tot       1.00000  
      33  cha0033                 33  686835.45600      -4.93047     -80.43870             0        33      s5167s80617w         0         0         0         1           sdc        32           tot       1.00000  
      34  cha0034                 34  659276.80000      -4.92557     -80.42085             0        34      s5167s80617w         0         0         0         1           sdc        33           tot       1.00000  
      35  cha0035                 35  653167.82080      -4.91660     -80.40624             0        35      s5167s80617w         0         0         0         1           sdc        34           tot       1.00000  
      36  cha0036                 36  648654.48960      -4.92554     -80.38310             0        36      s5167s80617w         0         0         0         1           sdc        35           tot       1.00000  
      37  cha0037                 37  646350.02880      -4.93773     -80.36564             0        37      s5167s80617w         0         0         0         1           sdc        36           tot       1.00000  
      38  cha0038                 38  639541.96480      -4.93691     -80.35265             0        38      s5167s80617w         0         0         0         1           sdc        37           tot       1.00000  
      39  cha0039                 39  625426.94400      -4.94625     -80.33153             0        39      s5167s80617w         0         0         0         1           sdc        38           tot       1.00000  
      40  cha0040                 40  614033.45920      -4.96699     -80.31284             0        40      s5167s80617w         0         0         0         1           sdc        39           tot       1.00000  
      41  cha0041                 41   28560.60160      -4.92457     -80.23780             0        41      s5167s80617w         0         0         0         1           sdc       163           tot       1.00000  
      42  cha0042                 42   27689.04000      -4.90379     -80.21753             0        42      s5037s79792w         0         0         0         1           sdc        41           tot       1.00000  
      43  cha0043                 43   26111.96960      -4.88179     -80.20538             0        43      s5037s79792w         0         0         0         1           sdc        42           tot       1.00000  
      44  cha0044                 44    7145.82000      -4.85162     -80.16443             0        44      s5037s79792w         0         0         0         1           sdc        43           tot       1.00000  
      45  cha0045                 45   26515.35040      -4.93209     -80.42733             0        45      s5167s80617w         0         0         0         1           sdc        33           tot       1.00000  
      46  cha0046                 46   19908.99040      -4.94591     -80.40297             0        46      s5167s80617w         0         0         0         1           sdc        45           tot       1.00000  
      47  cha0047                 47   17710.64960      -4.97641     -80.36966             0        47      s5167s80617w         0         0         0         1           sdc        46           tot       1.00000  
      48  cha0048                 48   13507.56000      -4.92956     -80.33520             0        48      s5167s80617w         0         0         0         1           sdc        38           tot       1.00000  
      49  cha0049                 49   12442.40960      -4.91979     -80.33034             0        49      s5167s80617w         0         0         0         1           sdc        48           tot       1.00000  
      50  cha0050                 50    6803.19040      -4.92796     -80.36362             0        50      s5167s80617w         0         0         0         1           sdc        37           tot       1.00000  
      51  cha0051                 51    8029.52960      -4.92789     -80.28772             0        51      s5167s80617w         0         0         0         1           sdc        39           tot       1.00000  
      52  cha0052                 52   11848.68000      -4.89210     -80.32104             0        52      s5167s80617w         0         0         0         1           sdc        49           tot       1.00000  
      53  cha0053                 53   18299.52000      -4.86267     -80.20865             0        53      s5037s79792w         0         0         0         1           sdc        43           tot       1.00000  
      54  cha0054                 54    3132.27000      -4.85952     -80.30687             0        54      s5167s80617w         0         0         0         1           sdc        52           tot       1.00000  
      55  cha0055                 55    4497.12000      -4.88359     -80.35919             0        55      s5167s80617w         0         0         0         1           sdc        50           tot       1.00000  
      56  cha0056                 56   12718.62000      -4.84435     -80.21233             0        56      s5037s79792w         0         0         0         1           sdc        53           tot       1.00000  
      57  cha0057                 57    7125.56960      -4.84976     -80.31783             0        57      s5167s80617w         0         0         0         1           sdc        52           tot       1.00000  
      58  cha0058                 58    4487.40000      -4.97813     -80.47560             0        58      s5167s80617w         0         0         0         1           sdc        31           tot       1.00000  
      59  cha0059                 59     746.82000      -4.97154     -80.38955             0        59      s5167s80617w         0         0         0         1           sdc        46           tot       1.00000  
      60  cha0060                 60    1167.21000      -4.95604     -80.35669             0        60      s5167s80617w         0         0         0         1           sdc        36           tot       1.00000  
      61  cha0061                 61    6580.44000      -4.95814     -80.42812             0        61      s5167s80617w         0         0         0         1           sdc        45           tot       1.00000  
      62  cha0062                 62   11487.42000      -4.82482     -80.22006             0        62      s5037s79792w         0         0         0         1           sdc        56           tot       1.00000  
      63  cha0063                 63    5115.15000      -4.84189     -80.19813             0        63      s5037s79792w         0         0         0         1           sdc        53           tot       1.00000  
      64  cha0064                 64    5390.55000      -4.82087     -80.32638             0        64      s5167s80617w         0         0         0         1           sdc        57           tot       1.00000  
      65  cha0065                 65    1538.19000      -4.83304     -80.29350             0        65      s5167s80617w         0         0         0         1           sdc        54           tot       1.00000  
      66  cha0066                 66    1365.66000      -4.82985     -80.35153             0        66      s5167s80617w         0         0         0         1           sdc        55           tot       1.00000  
      67  cha0067                 67    1392.39000      -4.83108     -80.36208             0        67      s5167s80617w         0         0         0         1           sdc        55           tot       1.00000  
      68  cha0068                 68    3433.59000      -4.85865     -80.25654             0        68      s5167s80617w         0         0         0         1           sdc        51           tot       1.00000  
      69  cha0069                 69     605.88000      -4.83011     -80.21397             0        69      s5037s79792w         0         0         0         1           sdc        56           tot       1.00000  
      70  cha0070                 70     582.39000      -4.82941     -80.32353             0        70      s5167s80617w         0         0         0         1           sdc        57           tot       1.00000  
      71  cha0071                 71     837.54000      -4.83238     -80.08289             0        71      s5037s79792w         0         0         0         1           sdc         3           tot       1.00000  
      72  cha0072                 72    8324.36960      -4.92619     -80.22928             0        72      s5037s79792w         0         0         0         1           sdc       163           tot       1.00000  
      73  cha0073                 73    7020.27040      -4.91272     -80.19967             0        73      s5037s79792w         0         0         0         1           sdc        72           tot       1.00000  
      74  cha0074                 74    4101.03000      -4.91130     -80.39813             0        74      s5167s80617w         0         0         0         1           sdc        35           tot       1.00000  
      75  cha0075                 75    5651.37000      -4.91295     -80.41558             0        75      s5167s80617w         0         0         0         1           sdc        34           tot       1.00000  
      76  cha0076                 76    3544.56000      -4.90741     -80.17938             0        76      s5037s79792w         0         0         0         1           sdc        73           tot       1.00000  
      77  cha0077                 77    8044.11040      -4.90811     -80.08969             0        77      s5037s79792w         0         0         0         1           sdc       192           tot       1.00000  
      78  cha0078                 78    7191.99040      -4.93319     -79.98738             0        78      s5037s79792w         0         0         0         1           sdc       193           tot       1.00000  
      79  cha0079                 79    6084.72000      -4.91629     -80.51826             0        79      s5167s80617w         0         0         0         1           sdc       149           tot       1.00000  
      80  cha0080                 80    5384.88000      -4.88732     -80.07389             0        80      s5037s79792w         0         0         0         1           sdc        77           tot       1.00000  
      81  cha0081                 81    6468.66000      -4.92749     -79.98131             0        81      s5037s79792w         0         0         0         1           sdc        78           tot       1.00000  
      82  cha0082                 82    5785.83000      -4.92137     -79.97482             0        82      s5037s79792w         0         0         0         1           sdc        81           tot       1.00000  
      83  cha0083                 83    3889.62000      -4.91689     -79.96955             0        83      s5037s79792w         0         0         0         1           sdc        82           tot       1.00000  
      84  cha0084                 84    3375.27000      -4.89461     -80.39409             0        84      s5167s80617w         0         0         0         1           sdc        74           tot       1.00000  
      85  cha0085                 85    4384.53000      -4.89627     -80.42980             0        85      s5167s80617w         0         0         0         1           sdc        75           tot       1.00000  
      86  cha0086                 86    2366.01000      -4.93952     -80.56614             0        86      s5167s80617w         0         0         0         1           sdc       194           tot       1.00000  
      87  cha0087                 87    2248.56000      -4.87140     -80.39045             0        87      s5167s80617w         0         0         0         1           sdc        84           tot       1.00000  
      88  cha0088                 88    2127.87000      -4.89065     -80.52721             0        88      s5167s80617w         0         0         0         1           sdc        79           tot       1.00000  
      89  cha0089                 89    1793.34000      -4.91770     -79.96833             0        89      s5037s79792w         0         0         0         1           sdc        82           tot       1.00000  
      90  cha0090                 90    2538.54000      -4.90832     -79.95617             0        90      s5037s79792w         0         0         0         1           sdc        83           tot       1.00000  
      91  cha0091                 91    1298.43000      -4.91188     -80.17491             0        91      s5037s79792w         0         0         0         1           sdc        76           tot       1.00000  
      92  cha0092                 92    3751.92000      -4.88159     -80.04712             0        92      s5037s79792w         0         0         0         1           sdc        80           tot       1.00000  
      93  cha0093                 93    1419.12000      -4.88570     -80.44523             0        93      s5167s80617w         0         0         0         1           sdc        85           tot       1.00000  
      94  cha0094                 94    2980.80000      -4.86988     -80.51830             0        94      s5167s80617w         0         0         0         1           sdc        79           tot       1.00000  
      95  cha0095                 95    2713.50000      -4.89192     -80.16398             0        95      s5037s79792w         0         0         0         1           sdc        73           tot       1.00000  
      96  cha0096                 96     979.29000      -4.94188     -80.44884             0        96      s5167s80617w         0         0         0         1           sdc        32           tot       1.00000  
      97  cha0097                 97     690.93000      -4.94356     -80.51256             0        97      s5167s80617w         0         0         0         1           sdc       149           tot       1.00000  
      98  cha0098                 98     808.38000      -4.93993     -80.57061             0        98      s5167s80617w         0         0         0         1           sdc       194           tot       1.00000  
      99  cha0099                 99    1186.65000      -4.92744     -79.95330             0        99      s5037s79792w         0         0         0         1           sdc        89           tot       1.00000  
     100  cha0100                100     678.78000      -4.93114     -79.97724             0       100      s5037s79792w         0         0         0         1           sdc        78           tot       1.00000  
     101  cha0101                101     903.15000      -4.93056     -80.56168             0       101      s5167s80617w         0         0         0         1           sdc        86           tot       1.00000  
     102  cha0102                102     533.79000      -4.91757     -80.17125             0       102      s5037s79792w         0         0         0         1           sdc        91           tot       1.00000  
     103  cha0103                103     971.19000      -4.92522     -80.48700             0       103      s5167s80617w         0         0         0         1           sdc        30           tot       1.00000  
     104  cha0104                104     501.39000      -4.91966     -80.21630             0       104      s5037s79792w         0         0         0         1           sdc        72           tot       1.00000  
     105  cha0105                105     753.30000      -4.92195     -80.09332             0       105      s5037s79792w         0         0         0         1           sdc       192           tot       1.00000  
     106  cha0106                106     578.34000      -4.91687     -79.96022             0       106      s5037s79792w         0         0         0         1           sdc        89           tot       1.00000  
     107  cha0107                107     700.65000      -4.91937     -80.32263             0       107      s5167s80617w         0         0         0         1           sdc        48           tot       1.00000  
     108  cha0108                108    1355.13000      -4.92730     -80.55357             0       108      s5167s80617w         0         0         0         1           sdc        86           tot       1.00000  
     109  cha0109                109     681.21000      -4.91512     -80.16517             0       109      s5037s79792w         0         0         0         1           sdc        91           tot       1.00000  
     110  cha0110                110    2025.81000      -4.93523     -80.30151             0       110      s5167s80617w         0         0         0         1           sdc        39           tot       1.00000  
     111  cha0111                111    1047.33000      -4.90665     -79.93264             0       111      s5037s79792w         0         0         0         1           sdc        90           tot       1.00000  
     112  cha0112                112     562.14000      -4.91439     -80.23132             0       112      s5037s79792w         0         0         0         1           sdc        41           tot       1.00000  
     113  cha0113                113     630.99000      -4.91730     -79.97564             0       113      s5037s79792w         0         0         0         1           sdc        81           tot       1.00000  
     114  cha0114                114     554.85000      -4.91246     -80.33157             0       114      s5167s80617w         0         0         0         1           sdc        49           tot       1.00000  
     115  cha0115                115    1899.45000      -4.91895     -79.98781             0       115      s5037s79792w         0         0         0         1           sdc       193           tot       1.00000  
     116  cha0116                116    1124.28000      -4.89465     -80.07023             0       116      s5037s79792w         0         0         0         1           sdc        77           tot       1.00000  
     117  cha0117                117     700.65000      -4.90357     -80.39895             0       117      s5167s80617w         0         0         0         1           sdc        74           tot       1.00000  
     118  cha0118                118    1221.48000      -4.89770     -79.93306             0       118      s5037s79792w         0         0         0         1           sdc        90           tot       1.00000  
     119  cha0119                119    1227.15000      -4.88236     -80.01668             0       119      s5037s79792w         0         0         0         1           sdc        92           tot       1.00000  
     120  cha0120                120     887.76000      -4.88781     -80.54304             0       120      s5167s80617w         0         0         0         1           sdc        88           tot       1.00000  
     121  cha0121                121     592.11000      -4.88285     -80.44848             0       121      s5167s80617w         0         0         0         1           sdc        93           tot       1.00000  
     122  cha0122                122     942.03000      -4.88585     -80.19523             0       122      s5037s79792w         0         0         0         1           sdc        42           tot       1.00000  
     123  cha0123                123    1345.41000      -4.89733     -79.95741             0       123      s5037s79792w         0         0         0         1           sdc        83           tot       1.00000  
     124  cha0124                124    1829.79000      -4.89864     -80.35066             0       124      s5167s80617w         0         0         0         1           sdc        50           tot       1.00000  
     125  cha0125                125     508.68000      -4.87724     -80.14452             0       125      s5037s79792w         0         0         0         1           sdc        95           tot       1.00000  
     126  cha0126                126    1997.46000      -4.88837     -80.26503             0       126      s5167s80617w         0         0         0         1           sdc        51           tot       1.00000  
     127  cha0127                127     765.45000      -4.88041     -80.45457             0       127      s5167s80617w         0         0         0         1           sdc        93           tot       1.00000  
     128  cha0128                128    2046.87000      -4.89149     -80.14247             0       128      s5037s79792w         0         0         0         1           sdc        76           tot       1.00000  
     129  cha0129                129     828.63000      -4.87545     -80.02196             0       129      s5037s79792w         0         0         0         1           sdc        92           tot       1.00000  
     130  cha0130                130     605.88000      -4.87588     -80.39248             0       130      s5167s80617w         0         0         0         1           sdc        84           tot       1.00000  
     131  cha0131                131    1057.86000      -4.88088     -80.53615             0       131      s5167s80617w         0         0         0         1           sdc        88           tot       1.00000  
     132  cha0132                132     628.56000      -4.87480     -80.14371             0       132      s5037s79792w         0         0         0         1           sdc        95           tot       1.00000  
     133  cha0133                133     939.60000      -4.88771     -80.41804             0       133      s5167s80617w         0         0         0         1           sdc        75           tot       1.00000  
     134  cha0134                134    2161.08000      -4.89876     -80.49392             0       134      s5167s80617w         0         0         0         1           sdc        29           tot       1.00000  
     135  cha0135                135    1428.03000      -4.87225     -80.06133             0       135      s5037s79792w         0         0         0         1           sdc        80           tot       1.00000  
     136  cha0136                136    1693.71000      -4.86900     -80.43997             0       136      s5167s80617w         0         0         0         1           sdc        85           tot       1.00000  
     137  cha0137                137    1132.38000      -4.84933     -80.29754             0       137      s5167s80617w         0         0         0         1           sdc        54           tot       1.00000  
     138  cha0138                138     554.85000      -4.84505     -80.51628             0       138      s5167s80617w         0         0         0         1           sdc        94           tot       1.00000  