field.fld: written by SWAT+ editor v3.0.4 on 2024-12-06 20:48 for SWAT+ rev.61.0.1
name                       len            wd           ang  
fld00010             500.00000     100.00000      30.00000  
fld00020             500.00000     100.00000      30.00000  
fld00030             500.00000     100.00000      30.00000  
fld00040             500.00000     100.00000      30.00000  
fld00050             500.00000     100.00000      30.00000  
fld00060             500.00000     100.00000      30.00000  
fld00070             500.00000     100.00000      30.00000  
fld00080             500.00000     100.00000      30.00000  
fld00090             500.00000     100.00000      30.00000  
fld00100             500.00000     100.00000      30.00000  
fld00110             500.00000     100.00000      30.00000  
fld00120             500.00000     100.00000      30.00000  
fld00130             500.00000     100.00000      30.00000  
fld00140             500.00000     100.00000      30.00000  
fld00150             500.00000     100.00000      30.00000  
fld00160             500.00000     100.00000      30.00000  
fld00170             500.00000     100.00000      30.00000  
fld00180             500.00000     100.00000      30.00000  
fld00190             500.00000     100.00000      30.00000  
fld00200             500.00000     100.00000      30.00000  
fld00210             500.00000     100.00000      30.00000  
fld00220             500.00000     100.00000      30.00000  
fld00230             500.00000     100.00000      30.00000  
fld00240             500.00000     100.00000      30.00000  
fld00250             500.00000     100.00000      30.00000  
fld00260             500.00000     100.00000      30.00000  
fld00270             500.00000     100.00000      30.00000  
fld00280             500.00000     100.00000      30.00000  
fld00290             500.00000     100.00000      30.00000  
fld00300             500.00000     100.00000      30.00000  
fld00310             500.00000     100.00000      30.00000  
fld00320             500.00000     100.00000      30.00000  
fld00330             500.00000     100.00000      30.00000  
fld00340             500.00000     100.00000      30.00000  
fld00350             500.00000     100.00000      30.00000  
fld00360             500.00000     100.00000      30.00000  
fld00370             500.00000     100.00000      30.00000  
fld00380             500.00000     100.00000      30.00000  
fld00390             500.00000     100.00000      30.00000  
fld00400             500.00000     100.00000      30.00000  
fld00410             500.00000     100.00000      30.00000  
fld00420             500.00000     100.00000      30.00000  
fld00430             500.00000     100.00000      30.00000  
fld00440             500.00000     100.00000      30.00000  
fld00450             500.00000     100.00000      30.00000  
fld00460             500.00000     100.00000      30.00000  
fld00470             500.00000     100.00000      30.00000  
fld00480             500.00000     100.00000      30.00000  
fld00490             500.00000     100.00000      30.00000  
fld00500             500.00000     100.00000      30.00000  
fld00510             500.00000     100.00000      30.00000  
fld00520             500.00000     100.00000      30.00000  
fld00530             500.00000     100.00000      30.00000  
fld00540             500.00000     100.00000      30.00000  
fld00550             500.00000     100.00000      30.00000  
fld00560             500.00000     100.00000      30.00000  
fld00570             500.00000     100.00000      30.00000  
fld00580             500.00000     100.00000      30.00000  
fld00590             500.00000     100.00000      30.00000  
fld00600             500.00000     100.00000      30.00000  
fld00610             500.00000     100.00000      30.00000  
fld00620             500.00000     100.00000      30.00000  
fld00630             500.00000     100.00000      30.00000  
fld00640             500.00000     100.00000      30.00000  
fld00650             500.00000     100.00000      30.00000  
fld00660             500.00000     100.00000      30.00000  
fld00670             500.00000     100.00000      30.00000  
fld00680             500.00000     100.00000      30.00000  
fld00690             500.00000     100.00000      30.00000  
fld00700             500.00000     100.00000      30.00000  
fld00710             500.00000     100.00000      30.00000  
fld00720             500.00000     100.00000      30.00000  
fld00730             500.00000     100.00000      30.00000  
fld00740             500.00000     100.00000      30.00000  
fld00750             500.00000     100.00000      30.00000  
fld00760             500.00000     100.00000      30.00000  
fld00770             500.00000     100.00000      30.00000  
fld00780             500.00000     100.00000      30.00000  
fld00790             500.00000     100.00000      30.00000  
fld00800             500.00000     100.00000      30.00000  
fld00810             500.00000     100.00000      30.00000  
fld00820             500.00000     100.00000      30.00000  
fld00830             500.00000     100.00000      30.00000  
fld00840             500.00000     100.00000      30.00000  
fld00850             500.00000     100.00000      30.00000  
fld00860             500.00000     100.00000      30.00000  
fld00870             500.00000     100.00000      30.00000  
fld00880             500.00000     100.00000      30.00000  
fld00890             500.00000     100.00000      30.00000  
fld00900             500.00000     100.00000      30.00000  
fld00910             500.00000     100.00000      30.00000  
fld00920             500.00000     100.00000      30.00000  
fld00930             500.00000     100.00000      30.00000  
fld00940             500.00000     100.00000      30.00000  
fld00950             500.00000     100.00000      30.00000  
fld00960             500.00000     100.00000      30.00000  
fld00970             500.00000     100.00000      30.00000  
fld00980             500.00000     100.00000      30.00000  
fld00990             500.00000     100.00000      30.00000  
fld01000             500.00000     100.00000      30.00000  
fld01010             500.00000     100.00000      30.00000  
fld01020             500.00000     100.00000      30.00000  
fld01030             500.00000     100.00000      30.00000  
fld01040             500.00000     100.00000      30.00000  
fld01050             500.00000     100.00000      30.00000  
fld01060             500.00000     100.00000      30.00000  
fld01070             500.00000     100.00000      30.00000  
fld01080             500.00000     100.00000      30.00000  
fld01090             500.00000     100.00000      30.00000  
fld01100             500.00000     100.00000      30.00000  
fld01110             500.00000     100.00000      30.00000  
fld01120             500.00000     100.00000      30.00000  
fld01130             500.00000     100.00000      30.00000  
fld01140             500.00000     100.00000      30.00000  
fld01150             500.00000     100.00000      30.00000  
fld01160             500.00000     100.00000      30.00000  
fld01170             500.00000     100.00000      30.00000  
fld01180             500.00000     100.00000      30.00000  
fld01190             500.00000     100.00000      30.00000  
fld01200             500.00000     100.00000      30.00000  
fld01210             500.00000     100.00000      30.00000  
fld01220             500.00000     100.00000      30.00000  
fld01230             500.00000     100.00000      30.00000  
fld01240             500.00000     100.00000      30.00000  
fld01250             500.00000     100.00000      30.00000  
fld01260             500.00000     100.00000      30.00000  
fld01270             500.00000     100.00000      30.00000  
fld01280             500.00000     100.00000      30.00000  
fld01290             500.00000     100.00000      30.00000  
fld01300             500.00000     100.00000      30.00000  
fld01310             500.00000     100.00000      30.00000  
fld01320             500.00000     100.00000      30.00000  
fld01330             500.00000     100.00000      30.00000  
fld01340             500.00000     100.00000      30.00000  
fld01350             500.00000     100.00000      30.00000  
fld01360             500.00000     100.00000      30.00000  
fld01370             500.00000     100.00000      30.00000  
fld01380             500.00000     100.00000      30.00000  
fld01390             500.00000     100.00000      30.00000  
fld01400             500.00000     100.00000      30.00000  
fld01410             500.00000     100.00000      30.00000  
fld01420             500.00000     100.00000      30.00000  
fld01430             500.00000     100.00000      30.00000  
fld01440             500.00000     100.00000      30.00000  
fld01450             500.00000     100.00000      30.00000  
fld01460             500.00000     100.00000      30.00000  
fld01470             500.00000     100.00000      30.00000  
fld01480             500.00000     100.00000      30.00000  
fld01490             500.00000     100.00000      30.00000  
fld01500             500.00000     100.00000      30.00000  
fld01510             500.00000     100.00000      30.00000  
fld01520             500.00000     100.00000      30.00000  
fld01530             500.00000     100.00000      30.00000  
fld01540             500.00000     100.00000      30.00000  
fld01550             500.00000     100.00000      30.00000  
fld01560             500.00000     100.00000      30.00000  
fld01570             500.00000     100.00000      30.00000  
fld01580             500.00000     100.00000      30.00000  
fld01590             500.00000     100.00000      30.00000  
fld01600             500.00000     100.00000      30.00000  
fld01610             500.00000     100.00000      30.00000  
fld01620             500.00000     100.00000      30.00000  
fld01630             500.00000     100.00000      30.00000  
fld01640             500.00000     100.00000      30.00000  
fld01650             500.00000     100.00000      30.00000  
fld01660             500.00000     100.00000      30.00000  
fld01670             500.00000     100.00000      30.00000  
fld01680             500.00000     100.00000      30.00000  
fld01690             500.00000     100.00000      30.00000  
fld01700             500.00000     100.00000      30.00000  
fld01710             500.00000     100.00000      30.00000  
fld01720             500.00000     100.00000      30.00000  
fld01730             500.00000     100.00000      30.00000  
fld01740             500.00000     100.00000      30.00000  
fld01750             500.00000     100.00000      30.00000  
fld01760             500.00000     100.00000      30.00000  
fld01770             500.00000     100.00000      30.00000  
fld01780             500.00000     100.00000      30.00000  
fld01790             500.00000     100.00000      30.00000  
fld01800             500.00000     100.00000      30.00000  
fld01810             500.00000     100.00000      30.00000  
fld01820             500.00000     100.00000      30.00000  
fld01830             500.00000     100.00000      30.00000  
fld01840             500.00000     100.00000      30.00000  
fld01850             500.00000     100.00000      30.00000  
fld01860             500.00000     100.00000      30.00000  
fld01870             500.00000     100.00000      30.00000  
fld01880             500.00000     100.00000      30.00000  
fld01890             500.00000     100.00000      30.00000  
fld01900             500.00000     100.00000      30.00000  
fld01910             500.00000     100.00000      30.00000  
fld01920             500.00000     100.00000      30.00000  
fld01930             500.00000     100.00000      30.00000  
fld01940             500.00000     100.00000      30.00000  
fld01950             500.00000     100.00000      30.00000  
fld01960             500.00000     100.00000      30.00000  
fld01970             500.00000     100.00000      30.00000  
fld01980             500.00000     100.00000      30.00000  
fld01990             500.00000     100.00000      30.00000  
fld02000             500.00000     100.00000      30.00000  
fld02010             500.00000     100.00000      30.00000  
fld02020             500.00000     100.00000      30.00000  
fld02030             500.00000     100.00000      30.00000  
fld02040             500.00000     100.00000      30.00000  
fld02050             500.00000     100.00000      30.00000  
fld02060             500.00000     100.00000      30.00000  
fld02070             500.00000     100.00000      30.00000  
fld02080             500.00000     100.00000      30.00000  
fld02090             500.00000     100.00000      30.00000  
fld02100             500.00000     100.00000      30.00000  
fld02110             500.00000     100.00000      30.00000  
fld02120             500.00000     100.00000      30.00000  
fld02130             500.00000     100.00000      30.00000  
fld02140             500.00000     100.00000      30.00000  
fld02150             500.00000     100.00000      30.00000  
fld02160             500.00000     100.00000      30.00000  
fld02170             500.00000     100.00000      30.00000  
fld02180             500.00000     100.00000      30.00000  
fld02190             500.00000     100.00000      30.00000  
fld02200             500.00000     100.00000      30.00000  
fld02210             500.00000     100.00000      30.00000  
fld02220             500.00000     100.00000      30.00000  
fld02230             500.00000     100.00000      30.00000  
fld02240             500.00000     100.00000      30.00000  
fld02250             500.00000     100.00000      30.00000  
fld02260             500.00000     100.00000      30.00000  
fld02270             500.00000     100.00000      30.00000  
fld02280             500.00000     100.00000      30.00000  
fld02290             500.00000     100.00000      30.00000  
fld02300             500.00000     100.00000      30.00000  
fld02310             500.00000     100.00000      30.00000  
fld02320             500.00000     100.00000      30.00000  
fld02330             500.00000     100.00000      30.00000  
fld02340             500.00000     100.00000      30.00000  
fld02350             500.00000     100.00000      30.00000  
fld02360             500.00000     100.00000      30.00000  
fld02370             500.00000     100.00000      30.00000  
fld02380             500.00000     100.00000      30.00000  
fld02390             500.00000     100.00000      30.00000  
fld02400             500.00000     100.00000      30.00000  
fld02410             500.00000     100.00000      30.00000  
fld02420             500.00000     100.00000      30.00000  
fld02430             500.00000     100.00000      30.00000  
fld02440             500.00000     100.00000      30.00000  
fld02450             500.00000     100.00000      30.00000  
fld02460             500.00000     100.00000      30.00000  
fld02470             500.00000     100.00000      30.00000  
fld02480             500.00000     100.00000      30.00000  
fld02490             500.00000     100.00000      30.00000  
fld02500             500.00000     100.00000      30.00000  
fld02510             500.00000     100.00000      30.00000  
fld02520             500.00000     100.00000      30.00000  
fld02530             500.00000     100.00000      30.00000  
fld02540             500.00000     100.00000      30.00000  
fld02550             500.00000     100.00000      30.00000  
fld02560             500.00000     100.00000      30.00000  
fld02570             500.00000     100.00000      30.00000  
fld02580             500.00000     100.00000      30.00000  
fld02590             500.00000     100.00000      30.00000  
fld02600             500.00000     100.00000      30.00000  
fld02610             500.00000     100.00000      30.00000  
fld02620             500.00000     100.00000      30.00000  
fld02630             500.00000     100.00000      30.00000  
fld02640             500.00000     100.00000      30.00000  
fld02650             500.00000     100.00000      30.00000  
fld02660             500.00000     100.00000      30.00000  
fld02670             500.00000     100.00000      30.00000  
fld02680             500.00000     100.00000      30.00000  
fld02690             500.00000     100.00000      30.00000  
fld02700             500.00000     100.00000      30.00000  
fld02710             500.00000     100.00000      30.00000  
fld02720             500.00000     100.00000      30.00000  
fld02730             500.00000     100.00000      30.00000  
fld02740             500.00000     100.00000      30.00000  
fld02750             500.00000     100.00000      30.00000  
fld02760             500.00000     100.00000      30.00000  
fld02770             500.00000     100.00000      30.00000  
fld02780             500.00000     100.00000      30.00000  
fld02790             500.00000     100.00000      30.00000  
fld02800             500.00000     100.00000      30.00000  
fld02810             500.00000     100.00000      30.00000  
fld02820             500.00000     100.00000      30.00000  
fld02830             500.00000     100.00000      30.00000  
fld02840             500.00000     100.00000      30.00000  
fld02850             500.00000     100.00000      30.00000  
fld02860             500.00000     100.00000      30.00000  
fld02870             500.00000     100.00000      30.00000  
fld02880             500.00000     100.00000      30.00000  
fld02890             500.00000     100.00000      30.00000  
fld02900             500.00000     100.00000      30.00000  
fld02910             500.00000     100.00000      30.00000  
fld02920             500.00000     100.00000      30.00000  
fld02930             500.00000     100.00000      30.00000  
fld02940             500.00000     100.00000      30.00000  
fld02950             500.00000     100.00000      30.00000  
fld02960             500.00000     100.00000      30.00000  
fld02970             500.00000     100.00000      30.00000  
fld02980             500.00000     100.00000      30.00000  
fld02990             500.00000     100.00000      30.00000  
fld03000             500.00000     100.00000      30.00000  
fld03010             500.00000     100.00000      30.00000  
fld03020             500.00000     100.00000      30.00000  
fld03030             500.00000     100.00000      30.00000  
fld03040             500.00000     100.00000      30.00000  
fld03050             500.00000     100.00000      30.00000  
fld03060             500.00000     100.00000      30.00000  
fld03070             500.00000     100.00000      30.00000  
fld03080             500.00000     100.00000      30.00000  
fld03090             500.00000     100.00000      30.00000  
fld03100             500.00000     100.00000      30.00000  
fld03110             500.00000     100.00000      30.00000  
fld03120             500.00000     100.00000      30.00000  
fld03130             500.00000     100.00000      30.00000  
fld03140             500.00000     100.00000      30.00000  
fld03150             500.00000     100.00000      30.00000  
fld03160             500.00000     100.00000      30.00000  
fld03170             500.00000     100.00000      30.00000  
fld03180             500.00000     100.00000      30.00000  
fld03190             500.00000     100.00000      30.00000  
fld03200             500.00000     100.00000      30.00000  
fld03210             500.00000     100.00000      30.00000  
fld03220             500.00000     100.00000      30.00000  
fld03230             500.00000     100.00000      30.00000  
fld03240             500.00000     100.00000      30.00000  
fld03250             500.00000     100.00000      30.00000  
fld03260             500.00000     100.00000      30.00000  
fld03270             500.00000     100.00000      30.00000  
fld03280             500.00000     100.00000      30.00000  
fld03290             500.00000     100.00000      30.00000  
fld03300             500.00000     100.00000      30.00000  
fld03310             500.00000     100.00000      30.00000  
fld03320             500.00000     100.00000      30.00000  
fld03330             500.00000     100.00000      30.00000  
fld03340             500.00000     100.00000      30.00000  
fld03350             500.00000     100.00000      30.00000  
fld03360             500.00000     100.00000      30.00000  
fld03370             500.00000     100.00000      30.00000  
fld03380             500.00000     100.00000      30.00000  
fld03390             500.00000     100.00000      30.00000  
fld03400             500.00000     100.00000      30.00000  
fld03410             500.00000     100.00000      30.00000  
fld03420             500.00000     100.00000      30.00000  
fld03430             500.00000     100.00000      30.00000  
fld03440             500.00000     100.00000      30.00000  
fld03450             500.00000     100.00000      30.00000  
fld03460             500.00000     100.00000      30.00000  
fld03470             500.00000     100.00000      30.00000  
fld03480             500.00000     100.00000      30.00000  
fld03490             500.00000     100.00000      30.00000  
fld03500             500.00000     100.00000      30.00000  
fld03510             500.00000     100.00000      30.00000  
fld03520             500.00000     100.00000      30.00000  
fld03530             500.00000     100.00000      30.00000  
fld03540             500.00000     100.00000      30.00000  
fld03550             500.00000     100.00000      30.00000  
fld03560             500.00000     100.00000      30.00000  
fld03570             500.00000     100.00000      30.00000  
fld03580             500.00000     100.00000      30.00000  
fld03590             500.00000     100.00000      30.00000  
fld03600             500.00000     100.00000      30.00000  
fld03610             500.00000     100.00000      30.00000  
fld03620             500.00000     100.00000      30.00000  
fld03630             500.00000     100.00000      30.00000  
fld03640             500.00000     100.00000      30.00000  
fld03650             500.00000     100.00000      30.00000  
fld03660             500.00000     100.00000      30.00000  
fld03670             500.00000     100.00000      30.00000  
fld03680             500.00000     100.00000      30.00000  
fld03690             500.00000     100.00000      30.00000  
fld03700             500.00000     100.00000      30.00000  
fld03710             500.00000     100.00000      30.00000  
fld03720             500.00000     100.00000      30.00000  
fld03730             500.00000     100.00000      30.00000  
fld03740             500.00000     100.00000      30.00000  
fld03750             500.00000     100.00000      30.00000  
fld03760             500.00000     100.00000      30.00000  
fld03770             500.00000     100.00000      30.00000  
fld03780             500.00000     100.00000      30.00000  
fld03790             500.00000     100.00000      30.00000  
fld03800             500.00000     100.00000      30.00000  
fld03810             500.00000     100.00000      30.00000  
fld03820             500.00000     100.00000      30.00000  
fld03830             500.00000     100.00000      30.00000  
fld03840             500.00000     100.00000      30.00000  
fld03850             500.00000     100.00000      30.00000  
fld03860             500.00000     100.00000      30.00000  
fld03870             500.00000     100.00000      30.00000  
fld03880             500.00000     100.00000      30.00000  
fld03890             500.00000     100.00000      30.00000  
fld03900             500.00000     100.00000      30.00000  
fld03910             500.00000     100.00000      30.00000  
fld03920             500.00000     100.00000      30.00000  
fld03930             500.00000     100.00000      30.00000  
fld03940             500.00000     100.00000      30.00000  
fld03950             500.00000     100.00000      30.00000  
fld03960             500.00000     100.00000      30.00000  
fld03970             500.00000     100.00000      30.00000  
fld03980             500.00000     100.00000      30.00000  
fld03990             500.00000     100.00000      30.00000  
fld04000             500.00000     100.00000      30.00000  
fld04010             500.00000     100.00000      30.00000  
fld04020             500.00000     100.00000      30.00000  
fld04030             500.00000     100.00000      30.00000  
fld04040             500.00000     100.00000      30.00000  
fld04050             500.00000     100.00000      30.00000  
fld04060             500.00000     100.00000      30.00000  
fld04070             500.00000     100.00000      30.00000  
fld04080             500.00000     100.00000      30.00000  
fld04090             500.00000     100.00000      30.00000  
fld04100             500.00000     100.00000      30.00000  
fld04110             500.00000     100.00000      30.00000  
fld04120             500.00000     100.00000      30.00000  
fld04130             500.00000     100.00000      30.00000  
fld04140             500.00000     100.00000      30.00000  
fld04150             500.00000     100.00000      30.00000  
fld04160             500.00000     100.00000      30.00000  
fld04170             500.00000     100.00000      30.00000  
fld04180             500.00000     100.00000      30.00000  
fld04190             500.00000     100.00000      30.00000  
fld04200             500.00000     100.00000      30.00000  
fld04210             500.00000     100.00000      30.00000  
fld04220             500.00000     100.00000      30.00000  
fld04230             500.00000     100.00000      30.00000  
fld04240             500.00000     100.00000      30.00000  
fld04250             500.00000     100.00000      30.00000  
fld04260             500.00000     100.00000      30.00000  
fld04270             500.00000     100.00000      30.00000  
fld04280             500.00000     100.00000      30.00000  
fld04290             500.00000     100.00000      30.00000  
fld04300             500.00000     100.00000      30.00000  
fld04310             500.00000     100.00000      30.00000  
fld04320             500.00000     100.00000      30.00000  
fld04330             500.00000     100.00000      30.00000  
fld04340             500.00000     100.00000      30.00000  
fld04350             500.00000     100.00000      30.00000  
fld04360             500.00000     100.00000      30.00000  
fld04370             500.00000     100.00000      30.00000  
fld04380             500.00000     100.00000      30.00000  
fld04390             500.00000     100.00000      30.00000  
fld04400             500.00000     100.00000      30.00000  
fld04410             500.00000     100.00000      30.00000  
fld04420             500.00000     100.00000      30.00000  
fld04430             500.00000     100.00000      30.00000  
fld04440             500.00000     100.00000      30.00000  
fld04450             500.00000     100.00000      30.00000  
fld04460             500.00000     100.00000      30.00000  
fld04470             500.00000     100.00000      30.00000  
fld04480             500.00000     100.00000      30.00000  
fld04490             500.00000     100.00000      30.00000  
fld04500             500.00000     100.00000      30.00000  
fld04510             500.00000     100.00000      30.00000  
fld04520             500.00000     100.00000      30.00000  
fld04530             500.00000     100.00000      30.00000  
fld04540             500.00000     100.00000      30.00000  
fld04550             500.00000     100.00000      30.00000  
fld04560             500.00000     100.00000      30.00000  
fld04570             500.00000     100.00000      30.00000  
fld04580             500.00000     100.00000      30.00000  
fld04590             500.00000     100.00000      30.00000  
fld04600             500.00000     100.00000      30.00000  
fld04610             500.00000     100.00000      30.00000  
fld04620             500.00000     100.00000      30.00000  
fld04630             500.00000     100.00000      30.00000  
fld04640             500.00000     100.00000      30.00000  
fld04650             500.00000     100.00000      30.00000  
fld04660             500.00000     100.00000      30.00000  
fld04670             500.00000     100.00000      30.00000  
fld04680             500.00000     100.00000      30.00000  
fld04690             500.00000     100.00000      30.00000  
fld04700             500.00000     100.00000      30.00000  
fld04710             500.00000     100.00000      30.00000  
fld04720             500.00000     100.00000      30.00000  
fld04730             500.00000     100.00000      30.00000  
fld04740             500.00000     100.00000      30.00000  
fld04750             500.00000     100.00000      30.00000  
fld04760             500.00000     100.00000      30.00000  
fld04770             500.00000     100.00000      30.00000  
fld04780             500.00000     100.00000      30.00000  
fld04790             500.00000     100.00000      30.00000  
fld04800             500.00000     100.00000      30.00000  
fld04810             500.00000     100.00000      30.00000  
fld04820             500.00000     100.00000      30.00000  
fld04830             500.00000     100.00000      30.00000  
fld04840             500.00000     100.00000      30.00000  
fld04850             500.00000     100.00000      30.00000  
fld04860             500.00000     100.00000      30.00000  
fld04870             500.00000     100.00000      30.00000  
fld04880             500.00000     100.00000      30.00000  
fld04890             500.00000     100.00000      30.00000  