hru.con: written by SWAT+ editor v3.0.4 on 2024-12-06 20:47 for SWAT+ rev.61.0.1
      id  name                gis_id          area           lat           lon          elev       hru               wst       cst      ovfl      rule   out_tot  
       1  hru0001                  1     128.17383      -4.71659     -80.22360     518.11111         1      s5037s79792w         0         0         0         0  
       2  hru0002                  2     103.75977      -4.72275     -80.21357     343.22549         2      s5037s79792w         0         0         0         0  
       3  hru0003                  3      24.50806      -4.71407     -80.22028     485.07692         3      s5037s79792w         0         0         0         0  
       4  hru0004                  4      17.90974      -4.72346     -80.21821     322.89474         4      s5037s79792w         0         0         0         0  
       5  hru0005                  5       9.42618      -4.72940     -80.21351     243.20000         5      s5037s79792w         0         0         0         0  
       6  hru0006                  6      59.12033      -4.72192     -80.21573     327.21538         6      s5037s79792w         0         0         0         0  
       7  hru0007                  7      16.37178      -4.72016     -80.21982     382.94444         7      s5037s79792w         0         0         0         0  
       8  hru0008                  8      19.10041      -4.72481     -80.21040     280.90476         8      s5037s79792w         0         0         0         0  
       9  hru0009                  9      20.00996      -4.72757     -80.21571     256.40909         9      s5037s79792w         0         0         0         0  
      10  hru0010                 10      40.08813      -4.71893     -80.21163     317.24390        10      s5037s79792w         0         0         0         0  
      11  hru0011                 11      20.53294      -4.72706     -80.21198     270.85714        11      s5037s79792w         0         0         0         0  
      12  hru0012                 12      17.59967      -4.73422     -80.21638     241.22222        12      s5037s79792w         0         0         0         0  
      13  hru0013                 13      40.76918      -4.72939     -80.21802     256.57143        13      s5037s79792w         0         0         0         0  
      14  hru0014                 14      90.27461      -4.72576     -80.21700     289.22581        14      s5037s79792w         0         0         0         0  
      15  hru0015                 15      48.53473      -4.72934     -80.21767     247.42000        15      s5037s79792w         0         0         0         0  
      16  hru0016                 16      86.41899      -4.72324     -80.21846     297.47727        16      s5037s79792w         0         0         0         0  
      17  hru0017                 17      64.81424      -4.72666     -80.21865     260.84848        17      s5037s79792w         0         0         0         0  
      18  hru0018                 18      50.08373      -4.72692     -80.21704     256.17647        18      s5037s79792w         0         0         0         0  
      19  hru0019                 19      66.05145      -4.71897     -80.20729     310.10145        19      s5037s79792w         0         0         0         0  
      20  hru0020                 20      27.76075      -4.71952     -80.20582     291.62069        20      s5037s79792w         0         0         0         0  
      21  hru0021                 21      55.52151      -4.72143     -80.20956     278.87931        21      s5037s79792w         0         0         0         0  
      22  hru0022                 22      27.82333      -4.72337     -80.23460     501.09677        22      s5037s79792w         0         0         0         0  
      23  hru0023                 23      17.05301      -4.72704     -80.23529     359.42105        23      s5037s79792w         0         0         0         0  
      24  hru0024                 24      51.91576      -4.75109     -80.22405     202.27119        24      s5037s79792w         0         0         0         0  
      25  hru0025                 25      15.83871      -4.75287     -80.22487     205.27778        25      s5037s79792w         0         0         0         0  
      26  hru0026                 26       9.67921      -4.74974     -80.22184     211.00000        26      s5037s79792w         0         0         0         0  
      27  hru0027                 27      34.23206      -4.73202     -80.23468     289.86486        27      s5037s79792w         0         0         0         0  
      28  hru0028                 28      18.50381      -4.73561     -80.23428     252.95000        28      s5037s79792w         0         0         0         0  
      29  hru0029                 29      31.45648      -4.73536     -80.23594     262.58824        29      s5037s79792w         0         0         0         0  
      30  hru0030                 30      53.41235      -4.74856     -80.22779     218.76271        30      s5037s79792w         0         0         0         0  
      31  hru0031                 31      95.96118      -4.75019     -80.22845     214.02830        31      s5037s79792w         0         0         0         0  
      32  hru0032                 32      28.06412      -4.74474     -80.22738     230.83871        32      s5037s79792w         0         0         0         0  
      33  hru0033                 33      49.76757      -4.75053     -80.22664     210.56364        33      s5037s79792w         0         0         0         0  
      34  hru0034                 34     151.11243      -4.75118     -80.22681     204.67665        34      s5037s79792w         0         0         0         0  
      35  hru0035                 35      93.14850      -4.72481     -80.24300     492.48958        35      s5037s79792w         0         0         0         0  
      36  hru0036                 36      33.96039      -4.72830     -80.24206     351.20000        36      s5037s79792w         0         0         0         0  
      37  hru0037                 37      15.52475      -4.76455     -80.24326     198.31250        37      s5037s79792w         0         0         0         0  
      38  hru0038                 38       3.82909      -4.72736     -80.24634     415.75000        38      s5037s79792w         0         0         0         0  
      39  hru0039                 39       4.78636      -4.72773     -80.24597     386.80000        39      s5037s79792w         0         0         0         0  
      40  hru0040                 40      14.35909      -4.76316     -80.24112     194.06667        40      s5037s79792w         0         0         0         0  
      41  hru0041                 41       2.87182      -4.76555     -80.23798     194.00000        41      s5037s79792w         0         0         0         0  
      42  hru0042                 42      52.45317      -4.73227     -80.24295     299.61538        42      s5037s79792w         0         0         0         0  
      43  hru0043                 43      15.13072      -4.73407     -80.24288     276.46667        43      s5037s79792w         0         0         0         0  
      44  hru0044                 44      20.17429      -4.74901     -80.24360     235.65000        44      s5037s79792w         0         0         0         0  
      45  hru0045                 45      54.85267      -4.74965     -80.24052     223.47170        45      s5037s79792w         0         0         0         0  
      46  hru0046                 46     137.64915      -4.75186     -80.24023     216.13534        46      s5037s79792w         0         0         0         0  
      47  hru0047                 47     136.54708      -4.76332     -80.24003     194.56934        47      s5037s79792w         0         0         0         0  
      48  hru0048                 48       6.16664      -4.77199     -80.24470     185.85714        48      s5037s79792w         0         0         0         0  
      49  hru0049                 49      47.57124      -4.77228     -80.24364     182.79630        49      s5037s79792w         0         0         0         0  
      50  hru0050                 50     171.78504      -4.77210     -80.24549     180.81667        50      s5037s79792w         0         0         0         0  
      51  hru0051                 51     150.66000      -4.78044     -80.24929     173.42857        51      s5037s79792w         0         0         0         0  
      52  hru0052                 52     202.89146      -4.73858     -80.19208     284.58854        52      s5037s79792w         0         0         0         0  
      53  hru0053                 53      81.36793      -4.74312     -80.18641     292.46753        53      s5037s79792w         0         0         0         0  
      54  hru0054                 54      91.93519      -4.74873     -80.18449     298.80460        54      s5037s79792w         0         0         0         0  
      55  hru0055                 55      39.80895      -4.75693     -80.19072     432.85000        55      s5037s79792w         0         0         0         0  
      56  hru0056                 56     114.45073      -4.75053     -80.18884     330.64348        56      s5037s79792w         0         0         0         0  
      57  hru0057                 57      31.84716      -4.75400     -80.18329     321.37500        57      s5037s79792w         0         0         0         0  
      58  hru0058                 58      44.78507      -4.75676     -80.18091     317.82222        58      s5037s79792w         0         0         0         0  
      59  hru0059                 59     251.79162      -4.76455     -80.18222     374.26087        59      s5037s79792w         0         0         0         0  
      60  hru0060                 60      70.66089      -4.76160     -80.18151     338.11268        60      s5037s79792w         0         0         0         0  
      61  hru0061                 61      50.75641      -4.76830     -80.18547     459.39216        61      s5037s79792w         0         0         0         0  
      62  hru0062                 62      70.66089      -4.76424     -80.18215     351.30986        62      s5037s79792w         0         0         0         0  
      63  hru0063                 63     163.66595      -4.73667     -80.19367     267.72340        63      s5037s79792w         0         0         0         0  
      64  hru0064                 64      59.19832      -4.73681     -80.19729     246.15686        64      s5037s79792w         0         0         0         0  
      65  hru0065                 65     125.36115      -4.73811     -80.19977     233.84259        65      s5037s79792w         0         0         0         0  
      66  hru0066                 66     128.01856      -4.75489     -80.18630     378.65306        66      s5037s79792w         0         0         0         0  
      67  hru0067                 67      99.27970      -4.76947     -80.18072     485.63158        67      s5037s79792w         0         0         0         0  
      68  hru0068                 68      33.40537      -4.73384     -80.25567     391.50000        68      s5037s79792w         0         0         0         0  
      69  hru0069                 69     109.49538      -4.73861     -80.25412     279.37288        69      s5037s79792w         0         0         0         0  
      70  hru0070                 70      29.69366      -4.74370     -80.25565     236.90625        70      s5037s79792w         0         0         0         0  
      71  hru0071                 71      34.33330      -4.74128     -80.25577     244.21622        71      s5037s79792w         0         0         0         0  
      72  hru0072                 72      15.77476      -4.74567     -80.25118     227.00000        72      s5037s79792w         0         0         0         0  
      73  hru0073                 73      38.04500      -4.74894     -80.25255     213.12195        73      s5037s79792w         0         0         0         0  
      74  hru0074                 74      22.27025      -4.74517     -80.25055     233.62500        74      s5037s79792w         0         0         0         0  
      75  hru0075                 75      15.77476      -4.74519     -80.24836     233.64706        75      s5037s79792w         0         0         0         0  
      76  hru0076                 76      66.81074      -4.74714     -80.25244     216.45833        76      s5037s79792w         0         0         0         0  
      77  hru0077                 77      32.47744      -4.74708     -80.25057     222.37143        77      s5037s79792w         0         0         0         0  
      78  hru0078                 78      41.24361      -4.73457     -80.25570     373.46154        78      s5037s79792w         0         0         0         0  
      79  hru0079                 79      19.03551      -4.73490     -80.25253     319.77778        79      s5037s79792w         0         0         0         0  
      80  hru0080                 80      11.63281      -4.75725     -80.25724     199.00000        80      s5037s79792w         0         0         0         0  
      81  hru0081                 81      11.46422      -4.75852     -80.26019     190.27273        81      s5167s80617w         0         0         0         0  
      82  hru0082                 82       3.12661      -4.75689     -80.25828     195.00000        82      s5037s79792w         0         0         0         0  
      83  hru0083                 83     107.03556      -4.75678     -80.25919     193.09009        83      s5167s80617w         0         0         0         0  
      84  hru0084                 84      16.39283      -4.75616     -80.25637     199.88235        84      s5037s79792w         0         0         0         0  
      85  hru0085                 85      78.26889      -4.76229     -80.25883     186.00000        85      s5167s80617w         0         0         0         0  
      86  hru0086                 86      19.32565      -4.75925     -80.25771     196.85000        86      s5037s79792w         0         0         0         0  
      87  hru0087                 87      11.72091      -4.75458     -80.25875     200.66667        87      s5037s79792w         0         0         0         0  
      88  hru0088                 88      35.16274      -4.75856     -80.26145     188.77778        88      s5167s80617w         0         0         0         0  
      89  hru0089                 89      75.69439      -4.74078     -80.27193     218.39130        89      s5167s80617w         0         0         0         0  
      90  hru0090                 90      23.37821      -4.73817     -80.26524     283.68000        90      s5167s80617w         0         0         0         0  
      91  hru0091                 91      19.63770      -4.73623     -80.26371     355.33333        91      s5167s80617w         0         0         0         0  
      92  hru0092                 92       6.54590      -4.76411     -80.26766     186.00000        92      s5167s80617w         0         0         0         0  
      93  hru0093                 93      18.98796      -4.74244     -80.26698     250.05000        93      s5167s80617w         0         0         0         0  
      94  hru0094                 94      10.44338      -4.74520     -80.27046     218.27273        94      s5167s80617w         0         0         0         0  
      95  hru0095                 95      23.73495      -4.74524     -80.27170     210.88000        95      s5167s80617w         0         0         0         0  
      96  hru0096                 96      19.61269      -4.73658     -80.26763     257.65000        96      s5167s80617w         0         0         0         0  
      97  hru0097                 97       7.84508      -4.73939     -80.26854     234.62500        97      s5167s80617w         0         0         0         0  
      98  hru0098                 98       5.88381      -4.74184     -80.26938     225.83333        98      s5167s80617w         0         0         0         0  
      99  hru0099                 99     106.93420      -4.75265     -80.27251     198.15517        99      s5167s80617w         0         0         0         0  
     100  hru0100                100      23.04616      -4.74935     -80.27325     205.96000       100      s5167s80617w         0         0         0         0  
     101  hru0101                101      65.69697      -4.74545     -80.27714     206.62857       101      s5167s80617w         0         0         0         0  
     102  hru0102                102       8.44675      -4.74523     -80.27560     210.88889       102      s5167s80617w         0         0         0         0  
     103  hru0103                103      32.95277      -4.75726     -80.26858     192.52778       103      s5167s80617w         0         0         0         0  
     104  hru0104                104       4.57677      -4.75901     -80.26931     195.60000       104      s5167s80617w         0         0         0         0  
     105  hru0105                105      76.88979      -4.76062     -80.26860     186.63158       105      s5167s80617w         0         0         0         0  
     106  hru0106                106      30.28713      -4.75940     -80.27256     190.26667       106      s5167s80617w         0         0         0         0  
     107  hru0107                107       8.51826      -4.76187     -80.26990     185.77778       107      s5167s80617w         0         0         0         0  
     108  hru0108                108       1.89295      -4.75730     -80.27004     194.00000       108      s5167s80617w         0         0         0         0  
     109  hru0109                109       8.51826      -4.75537     -80.27866     194.44444       109      s5167s80617w         0         0         0         0  
     110  hru0110                110       0.94647      -4.75447     -80.28100     199.00000       110      s5167s80617w         0         0         0         0  
     111  hru0111                111      18.92946      -4.75938     -80.27177     187.52632       111      s5167s80617w         0         0         0         0  
     112  hru0112                112     154.03594      -4.75042     -80.28858     195.74026       112      s5167s80617w         0         0         0         0  
     113  hru0113                113      33.00770      -4.75053     -80.28819     199.87879       113      s5167s80617w         0         0         0         0  
     114  hru0114                114     244.30191      -4.75782     -80.28565     189.19831       114      s5167s80617w         0         0         0         0  
     115  hru0115                115     546.81638      -4.77584     -80.27652     174.78662       115      s5167s80617w         0         0         0         0  
     116  hru0116                116      79.87431      -4.75853     -80.28188     190.26923       116      s5167s80617w         0         0         0         0  
     117  hru0117                117     213.66377      -4.77829     -80.27594     172.49038       117      s5167s80617w         0         0         0         0  
     118  hru0118                118     130.36019      -4.75517     -80.21036     210.51852       118      s5037s79792w         0         0         0         0  
     119  hru0119                119     103.32252      -4.75471     -80.20493     248.32710       119      s5037s79792w         0         0         0         0  
     120  hru0120                120      65.66291      -4.75417     -80.20838     220.45588       120      s5037s79792w         0         0         0         0  
     121  hru0121                121     153.70930      -4.76071     -80.19848     298.60294       121      s5037s79792w         0         0         0         0  
     122  hru0122                122      79.11508      -4.76317     -80.19418     416.14286       122      s5037s79792w         0         0         0         0  
     123  hru0123                123      17.91734      -4.74799     -80.20448     244.90000       123      s5037s79792w         0         0         0         0  
     124  hru0124                124      16.12560      -4.74918     -80.20572     224.50000       124      s5037s79792w         0         0         0         0  
     125  hru0125                125      25.98014      -4.74902     -80.20548     219.75862       125      s5037s79792w         0         0         0         0  
     126  hru0126                126      64.10553      -4.76375     -80.19990     315.52857       126      s5037s79792w         0         0         0         0  
     127  hru0127                127      82.42139      -4.76744     -80.20029     409.90000       127      s5037s79792w         0         0         0         0  
     128  hru0128                128      21.06000      -4.74702     -80.20186     237.42308       128      s5037s79792w         0         0         0         0  
     129  hru0129                129      25.11000      -4.74887     -80.20580     223.58065       129      s5037s79792w         0         0         0         0  
     130  hru0130                130      82.62000      -4.75008     -80.20717     215.17647       130      s5037s79792w         0         0         0         0  
     131  hru0131                131     110.58412      -4.76641     -80.22917     192.17187       131      s5037s79792w         0         0         0         0  
     132  hru0132                132      24.19028      -4.77130     -80.22679     189.25000       132      s5037s79792w         0         0         0         0  
     133  hru0133                133      11.71951      -4.77225     -80.21815     200.71429       133      s5037s79792w         0         0         0         0  
     134  hru0134                134       9.20819      -4.77616     -80.21960     188.72727       134      s5037s79792w         0         0         0         0  
     135  hru0135                135      26.78746      -4.77768     -80.22445     180.62500       135      s5037s79792w         0         0         0         0  
     136  hru0136                136     109.66115      -4.77562     -80.21237     243.83206       136      s5037s79792w         0         0         0         0  
     137  hru0137                137      30.13589      -4.77278     -80.21063     343.75000       137      s5037s79792w         0         0         0         0  
     138  hru0138                138      33.48432      -4.78045     -80.21360     194.80000       138      s5037s79792w         0         0         0         0  
     139  hru0139                139      51.06359      -4.77843     -80.21470     202.27869       139      s5037s79792w         0         0         0         0  
     140  hru0140                140     111.56012      -4.77802     -80.22568     173.53465       140      s5037s79792w         0         0         0         0  
     141  hru0141                141      45.17691      -4.78033     -80.22778     176.22727       141      s5037s79792w         0         0         0         0  
     142  hru0142                142       6.16049      -4.78114     -80.22701     178.66667       142      s5037s79792w         0         0         0         0  
     143  hru0143                143      50.59873      -4.77727     -80.22437     172.22414       143      s5037s79792w         0         0         0         0  
     144  hru0144                144      10.46870      -4.78154     -80.22200     175.08333       144      s5037s79792w         0         0         0         0  
     145  hru0145                145      36.84995      -4.77604     -80.22244     174.79070       145      s5037s79792w         0         0         0         0  
     146  hru0146                146       7.71278      -4.78091     -80.22390     177.77778       146      s5037s79792w         0         0         0         0  
     147  hru0147                147      11.95868      -4.77312     -80.21850     181.35714       147      s5037s79792w         0         0         0         0  
     148  hru0148                148      42.70956      -4.77281     -80.21100     280.64000       148      s5037s79792w         0         0         0         0  
     149  hru0149                149      42.70956      -4.77222     -80.21045     373.10000       149      s5037s79792w         0         0         0         0  
     150  hru0150                150      61.05167      -4.77405     -80.25417     178.35185       150      s5037s79792w         0         0         0         0  
     151  hru0151                151     167.91371      -4.77393     -80.25466     177.42515       151      s5037s79792w         0         0         0         0  
     152  hru0152                152      22.12037      -4.77105     -80.25454     184.68182       152      s5037s79792w         0         0         0         0  
     153  hru0153                153      42.13425      -4.77782     -80.25605     173.90698       153      s5167s80617w         0         0         0         0  
     154  hru0154                154     121.98656      -4.80289     -80.23270     170.45255       154      s5037s79792w         0         0         0         0  
     155  hru0155                155      33.83569      -4.80433     -80.23384     175.52632       155      s5037s79792w         0         0         0         0  
     156  hru0156                156      22.26032      -4.82079     -80.23584     202.56000       156      s5037s79792w         0         0         0         0  
     157  hru0157                157      26.15319      -4.79666     -80.23325     165.03571       157      s5037s79792w         0         0         0         0  
     158  hru0158                158       6.53830      -4.79931     -80.23249     169.42857       158      s5037s79792w         0         0         0         0  
     159  hru0159                159     159.63399      -4.79504     -80.23855     168.19101       159      s5037s79792w         0         0         0         0  
     160  hru0160                160      24.21415      -4.79811     -80.23939     169.18519       160      s5037s79792w         0         0         0         0  
     161  hru0161                161     131.42103      -4.79568     -80.23790     166.31469       161      s5037s79792w         0         0         0         0  
     162  hru0162                162      22.97571      -4.79868     -80.23970     167.08000       162      s5037s79792w         0         0         0         0  
     163  hru0163                163     157.07414      -4.80110     -80.24442     157.31953       163      s5037s79792w         0         0         0         0  
     164  hru0164                164      47.91362      -4.79944     -80.23512     163.16667       164      s5037s79792w         0         0         0         0  
     165  hru0165                165      12.42205      -4.80018     -80.23649     166.78571       165      s5037s79792w         0         0         0         0  
     166  hru0166                166      52.58168      -4.79463     -80.23561     169.90323       166      s5037s79792w         0         0         0         0  
     167  hru0167                167      17.80993      -4.79493     -80.23536     172.66667       167      s5037s79792w         0         0         0         0  
     168  hru0168                168      18.43590      -4.80152     -80.24405     158.78947       168      s5037s79792w         0         0         0         0  
     169  hru0169                169      94.98237      -4.79838     -80.24414     159.28421       169      s5037s79792w         0         0         0         0  
     170  hru0170                170      30.67139      -4.79164     -80.23960     167.25000       170      s5037s79792w         0         0         0         0  
     171  hru0171                171     116.42561      -4.78356     -80.19457     409.28000       171      s5037s79792w         0         0         0         0  
     172  hru0172                172     119.21982      -4.78580     -80.19831     307.52344       172      s5037s79792w         0         0         0         0  
     173  hru0173                173      23.81142      -4.77751     -80.19324     450.57692       173      s5037s79792w         0         0         0         0  
     174  hru0174                174      10.98989      -4.77988     -80.19489     353.75000       174      s5037s79792w         0         0         0         0  
     175  hru0175                175       5.49494      -4.78723     -80.21090     202.50000       175      s5037s79792w         0         0         0         0  
     176  hru0176                176      11.96242      -4.79252     -80.21212     186.75000       176      s5037s79792w         0         0         0         0  
     177  hru0177                177      35.88726      -4.79214     -80.21360     178.22222       177      s5037s79792w         0         0         0         0  
     178  hru0178                178     105.96134      -4.78676     -80.20379     249.34783       178      s5037s79792w         0         0         0         0  
     179  hru0179                179      58.04838      -4.78806     -80.20965     193.14286       179      s5037s79792w         0         0         0         0  
     180  hru0180                180      38.69892      -4.78726     -80.20716     208.66667       180      s5037s79792w         0         0         0         0  
     181  hru0181                181      76.71857      -4.79372     -80.25905     162.42857       181      s5167s80617w         0         0         0         0  
     182  hru0182                182       9.83571      -4.79361     -80.26311     164.40000       182      s5167s80617w         0         0         0         0  