ls_unit.ele: written by SWAT+ editor v3.0.4 on 2024-12-06 20:48 for SWAT+ rev.61.0.1
      id  name                   obj_typ  obj_typ_no      bsn_frac      sub_frac      reg_frac  
       1  hru0001                    hru           1     1.3588E-4       0.12730       0.00000  
       2  hru0002                    hru           2     1.1000E-4       0.10306       0.00000  
       3  hru0003                    hru           3     2.5982E-5       0.02434       0.00000  
       4  hru0004                    hru           4     1.8987E-5       0.01779       0.00000  
       5  hru0005                    hru           5     9.9932E-6       0.00936       0.00000  
       6  hru0006                    hru           6     6.2677E-5       0.05872       0.00000  
       7  hru0007                    hru           7     1.7357E-5       0.01626       0.00000  
       8  hru0008                    hru           8     2.0249E-5       0.01897       0.00000  
       9  hru0009                    hru           9     2.1214E-5       0.01987       0.00000  
      10  hru0010                    hru          10     4.2500E-5       0.03982       0.00000  
      11  hru0011                    hru          11     2.1768E-5       0.02039       0.00000  
      12  hru0012                    hru          12     1.8658E-5       0.01748       0.00000  
      13  hru0013                    hru          13     4.3222E-5       0.04049       0.00000  
      14  hru0014                    hru          14     9.5705E-5       0.08966       0.00000  
      15  hru0015                    hru          15     5.1454E-5       0.04821       0.00000  
      16  hru0016                    hru          16     9.1617E-5       0.08583       0.00000  
      17  hru0017                    hru          17     6.8713E-5       0.06437       0.00000  
      18  hru0018                    hru          18     5.3096E-5       0.04974       0.00000  
      19  hru0019                    hru          19     7.0025E-5       0.06560       0.00000  
      20  hru0020                    hru          20     2.9431E-5       0.02757       0.00000  
      21  hru0021                    hru          21     5.8861E-5       0.05514       0.00000  
      22  hru0022                    hru          22     2.9497E-5       0.04758       0.00000  
      23  hru0023                    hru          23     1.8079E-5       0.02916       0.00000  
      24  hru0024                    hru          24     5.5039E-5       0.08877       0.00000  
      25  hru0025                    hru          25     1.6791E-5       0.02708       0.00000  
      26  hru0026                    hru          26     1.0261E-5       0.01655       0.00000  
      27  hru0027                    hru          27     3.6291E-5       0.05853       0.00000  
      28  hru0028                    hru          28     1.9617E-5       0.03164       0.00000  
      29  hru0029                    hru          29     3.3349E-5       0.05379       0.00000  
      30  hru0030                    hru          30     5.6625E-5       0.09133       0.00000  
      31  hru0031                    hru          31     1.0173E-4       0.16409       0.00000  
      32  hru0032                    hru          32     2.9752E-5       0.04799       0.00000  
      33  hru0033                    hru          33     5.2761E-5       0.08510       0.00000  
      34  hru0034                    hru          34     1.6020E-4       0.25839       0.00000  
      35  hru0035                    hru          35     9.8752E-5       0.09688       0.00000  
      36  hru0036                    hru          36     3.6003E-5       0.03532       0.00000  
      37  hru0037                    hru          37     1.6459E-5       0.01615       0.00000  
      38  hru0038                    hru          38     4.0594E-6       0.00398       0.00000  
      39  hru0039                    hru          39     5.0743E-6       0.00498       0.00000  
      40  hru0040                    hru          40     1.5223E-5       0.01493       0.00000  
      41  hru0041                    hru          41     3.0446E-6       0.00299       0.00000  
      42  hru0042                    hru          42     5.5608E-5       0.05456       0.00000  
      43  hru0043                    hru          43     1.6041E-5       0.01574       0.00000  
      44  hru0044                    hru          44     2.1388E-5       0.02098       0.00000  
      45  hru0045                    hru          45     5.8152E-5       0.05705       0.00000  
      46  hru0046                    hru          46     1.4593E-4       0.14317       0.00000  
      47  hru0047                    hru          47     1.4476E-4       0.14202       0.00000  
      48  hru0048                    hru          48     6.5376E-6       0.00641       0.00000  
      49  hru0049                    hru          49     5.0433E-5       0.04948       0.00000  
      50  hru0050                    hru          50     1.8212E-4       0.17867       0.00000  
      51  hru0051                    hru          51     1.5972E-4       0.15670       0.00000  
      52  hru0052                    hru          52     2.1510E-4       0.12474       0.00000  
      53  hru0053                    hru          53     8.6262E-5       0.05003       0.00000  
      54  hru0054                    hru          54     9.7465E-5       0.05652       0.00000  
      55  hru0055                    hru          55     4.2204E-5       0.02448       0.00000  
      56  hru0056                    hru          56     1.2134E-4       0.07037       0.00000  
      57  hru0057                    hru          57     3.3763E-5       0.01958       0.00000  
      58  hru0058                    hru          58     4.7479E-5       0.02753       0.00000  
      59  hru0059                    hru          59     2.6694E-4       0.15481       0.00000  
      60  hru0060                    hru          60     7.4911E-5       0.04344       0.00000  
      61  hru0061                    hru          61     5.3810E-5       0.03121       0.00000  
      62  hru0062                    hru          62     7.4911E-5       0.04344       0.00000  
      63  hru0063                    hru          63     1.7351E-4       0.10063       0.00000  
      64  hru0064                    hru          64     6.2759E-5       0.03640       0.00000  
      65  hru0065                    hru          65     1.3290E-4       0.07708       0.00000  
      66  hru0066                    hru          66     1.3572E-4       0.07871       0.00000  
      67  hru0067                    hru          67     1.0525E-4       0.06104       0.00000  
      68  hru0068                    hru          68     3.5415E-5       0.04439       0.00000  
      69  hru0069                    hru          69     1.1608E-4       0.14551       0.00000  
      70  hru0070                    hru          70     3.1480E-5       0.03946       0.00000  
      71  hru0071                    hru          71     3.6399E-5       0.04563       0.00000  
      72  hru0072                    hru          72     1.6724E-5       0.02096       0.00000  
      73  hru0073                    hru          73     4.0334E-5       0.05056       0.00000  
      74  hru0074                    hru          74     2.3610E-5       0.02960       0.00000  
      75  hru0075                    hru          75     1.6724E-5       0.02096       0.00000  
      76  hru0076                    hru          76     7.0830E-5       0.08879       0.00000  
      77  hru0077                    hru          77     3.4431E-5       0.04316       0.00000  
      78  hru0078                    hru          78     4.3725E-5       0.05481       0.00000  
      79  hru0079                    hru          79     2.0181E-5       0.02530       0.00000  
      80  hru0080                    hru          80     1.2333E-5       0.01546       0.00000  
      81  hru0081                    hru          81     1.2154E-5       0.01524       0.00000  
      82  hru0082                    hru          82     3.3147E-6       0.00416       0.00000  
      83  hru0083                    hru          83     1.1347E-4       0.14224       0.00000  
      84  hru0084                    hru          84     1.7379E-5       0.02178       0.00000  
      85  hru0085                    hru          85     8.2977E-5       0.10401       0.00000  
      86  hru0086                    hru          86     2.0488E-5       0.02568       0.00000  
      87  hru0087                    hru          87     1.2426E-5       0.01558       0.00000  
      88  hru0088                    hru          88     3.7278E-5       0.04673       0.00000  
      89  hru0089                    hru          89     8.0248E-5       0.12628       0.00000  
      90  hru0090                    hru          90     2.4784E-5       0.03900       0.00000  
      91  hru0091                    hru          91     2.0819E-5       0.03276       0.00000  
      92  hru0092                    hru          92     6.9397E-6       0.01092       0.00000  
      93  hru0093                    hru          93     2.0130E-5       0.03168       0.00000  
      94  hru0094                    hru          94     1.1072E-5       0.01742       0.00000  
      95  hru0095                    hru          95     2.5163E-5       0.03960       0.00000  
      96  hru0096                    hru          96     2.0792E-5       0.03272       0.00000  
      97  hru0097                    hru          97     8.3170E-6       0.01309       0.00000  
      98  hru0098                    hru          98     6.2377E-6       0.00982       0.00000  
      99  hru0099                    hru          99     1.1337E-4       0.17840       0.00000  
     100  hru0100                    hru         100     2.4432E-5       0.03845       0.00000  
     101  hru0101                    hru         101     6.9649E-5       0.10960       0.00000  
     102  hru0102                    hru         102     8.9548E-6       0.01409       0.00000  
     103  hru0103                    hru         103     3.4935E-5       0.05498       0.00000  
     104  hru0104                    hru         104     4.8521E-6       0.00764       0.00000  
     105  hru0105                    hru         105     8.1515E-5       0.12828       0.00000  
     106  hru0106                    hru         106     3.2109E-5       0.05053       0.00000  
     107  hru0107                    hru         107     9.0307E-6       0.01421       0.00000  
     108  hru0108                    hru         108     2.0068E-6       0.00316       0.00000  
     109  hru0109                    hru         109     9.0307E-6       0.01421       0.00000  
     110  hru0110                    hru         110     1.0034E-6       0.00158       0.00000  
     111  hru0111                    hru         111     2.0068E-5       0.03158       0.00000  
     112  hru0112                    hru         112     1.6330E-4       0.12113       0.00000  
     113  hru0113                    hru         113     3.4993E-5       0.02596       0.00000  
     114  hru0114                    hru         114     2.5900E-4       0.19211       0.00000  
     115  hru0115                    hru         115     5.7971E-4       0.42999       0.00000  
     116  hru0116                    hru         116     8.4679E-5       0.06281       0.00000  
     117  hru0117                    hru         117     2.2652E-4       0.16801       0.00000  
     118  hru0118                    hru         118     1.3820E-4       0.15027       0.00000  
     119  hru0119                    hru         119     1.0954E-4       0.11910       0.00000  
     120  hru0120                    hru         120     6.9613E-5       0.07569       0.00000  
     121  hru0121                    hru         121     1.6296E-4       0.17718       0.00000  
     122  hru0122                    hru         122     8.3874E-5       0.09120       0.00000  
     123  hru0123                    hru         123     1.8995E-5       0.02065       0.00000  
     124  hru0124                    hru         124     1.7096E-5       0.01859       0.00000  
     125  hru0125                    hru         125     2.7543E-5       0.02995       0.00000  
     126  hru0126                    hru         126     6.7962E-5       0.07390       0.00000  
     127  hru0127                    hru         127     8.7379E-5       0.09501       0.00000  
     128  hru0128                    hru         128     2.2327E-5       0.02428       0.00000  
     129  hru0129                    hru         129     2.6620E-5       0.02894       0.00000  
     130  hru0130                    hru         130     8.7590E-5       0.09524       0.00000  
     131  hru0131                    hru         131     1.1724E-4       0.14311       0.00000  
     132  hru0132                    hru         132     2.5645E-5       0.03130       0.00000  
     133  hru0133                    hru         133     1.2424E-5       0.01517       0.00000  
     134  hru0134                    hru         134     9.7621E-6       0.01192       0.00000  
     135  hru0135                    hru         135     2.8399E-5       0.03467       0.00000  
     136  hru0136                    hru         136     1.1626E-4       0.14191       0.00000  
     137  hru0137                    hru         137     3.1949E-5       0.03900       0.00000  
     138  hru0138                    hru         138     3.5498E-5       0.04333       0.00000  
     139  hru0139                    hru         139     5.4135E-5       0.06608       0.00000  
     140  hru0140                    hru         140     1.1827E-4       0.14437       0.00000  
     141  hru0141                    hru         141     4.7894E-5       0.05846       0.00000  
     142  hru0142                    hru         142     6.5311E-6       0.00797       0.00000  
     143  hru0143                    hru         143     5.3642E-5       0.06548       0.00000  
     144  hru0144                    hru         144     1.1098E-5       0.01355       0.00000  
     145  hru0145                    hru         145     3.9067E-5       0.04769       0.00000  
     146  hru0146                    hru         146     8.1767E-6       0.00998       0.00000  
     147  hru0147                    hru         147     1.2678E-5       0.01548       0.00000  
     148  hru0148                    hru         148     4.5279E-5       0.05527       0.00000  
     149  hru0149                    hru         149     4.5279E-5       0.05527       0.00000  
     150  hru0150                    hru         150     6.4724E-5       0.20821       0.00000  
     151  hru0151                    hru         151     1.7801E-4       0.57265       0.00000  
     152  hru0152                    hru         152     2.3451E-5       0.07544       0.00000  
     153  hru0153                    hru         153     4.4669E-5       0.14370       0.00000  
     154  hru0154                    hru         154     1.2932E-4       0.12436       0.00000  
     155  hru0155                    hru         155     3.5871E-5       0.03449       0.00000  
     156  hru0156                    hru         156     2.3599E-5       0.02269       0.00000  
     157  hru0157                    hru         157     2.7726E-5       0.02666       0.00000  
     158  hru0158                    hru         158     6.9316E-6       0.00667       0.00000  
     159  hru0159                    hru         159     1.6924E-4       0.16274       0.00000  
     160  hru0160                    hru         160     2.5671E-5       0.02469       0.00000  
     161  hru0161                    hru         161     1.3933E-4       0.13398       0.00000  
     162  hru0162                    hru         162     2.4358E-5       0.02342       0.00000  
     163  hru0163                    hru         163     1.6652E-4       0.16013       0.00000  
     164  hru0164                    hru         164     5.0796E-5       0.04885       0.00000  
     165  hru0165                    hru         165     1.3169E-5       0.01266       0.00000  
     166  hru0166                    hru         166     5.5745E-5       0.05361       0.00000  
     167  hru0167                    hru         167     1.8881E-5       0.01816       0.00000  
     168  hru0168                    hru         168     1.9545E-5       0.01879       0.00000  
     169  hru0169                    hru         169     1.0070E-4       0.09683       0.00000  
     170  hru0170                    hru         170     3.2516E-5       0.03127       0.00000  
     171  hru0171                    hru         171     1.2343E-4       0.22113       0.00000  
     172  hru0172                    hru         172     1.2639E-4       0.22644       0.00000  
     173  hru0173                    hru         173     2.5244E-5       0.04523       0.00000  
     174  hru0174                    hru         174     1.1651E-5       0.02087       0.00000  
     175  hru0175                    hru         175     5.8255E-6       0.01044       0.00000  
     176  hru0176                    hru         176     1.2682E-5       0.02272       0.00000  
     177  hru0177                    hru         177     3.8046E-5       0.06816       0.00000  
     178  hru0178                    hru         178     1.1234E-4       0.20126       0.00000  
     179  hru0179                    hru         179     6.1540E-5       0.11025       0.00000  
     180  hru0180                    hru         180     4.1027E-5       0.07350       0.00000  
     181  hru0181                    hru         181     8.1333E-5       0.61905       0.00000  
     182  hru0182                    hru         182     1.0427E-5       0.07937       0.00000  
     183  hru0183                    hru         183     2.0855E-6       0.01587       0.00000  
     184  hru0184                    hru         184     1.5641E-5       0.11905       0.00000  
     185  hru0185                    hru         185     2.1897E-5       0.16667       0.00000  
     186  hru0186                    hru         186     4.7970E-5       0.08867       0.00000  
     187  hru0187                    hru         187     1.0148E-5       0.01876       0.00000  
     188  hru0188                    hru         188     1.9373E-5       0.03581       0.00000  
     189  hru0189                    hru         189     4.9312E-5       0.09115       0.00000  
     190  hru0190                    hru         190     1.1447E-5       0.02116       0.00000  
     191  hru0191                    hru         191     2.5537E-5       0.04720       0.00000  
     192  hru0192                    hru         192     2.3550E-5       0.04353       0.00000  
     193  hru0193                    hru         193     4.0506E-5       0.07487       0.00000  
     194  hru0194                    hru         194     1.6956E-5       0.03134       0.00000  
     195  hru0195                    hru         195     5.4421E-5       0.10059       0.00000  
     196  hru0196                    hru         196     2.0779E-5       0.03841       0.00000  
     197  hru0197                    hru         197     5.1891E-5       0.09592       0.00000  
     198  hru0198                    hru         198     8.8117E-6       0.01629       0.00000  
     199  hru0199                    hru         199     4.2247E-5       0.07809       0.00000  
     200  hru0200                    hru         200     7.6812E-6       0.01420       0.00000  
     201  hru0201                    hru         201     3.9417E-5       0.07286       0.00000  
     202  hru0202                    hru         202     1.4015E-5       0.02591       0.00000  
     203  hru0203                    hru         203     8.7593E-6       0.01619       0.00000  
     204  hru0204                    hru         204     2.1309E-5       0.03939       0.00000  
     205  hru0205                    hru         205     2.0382E-5       0.03768       0.00000  
     206  hru0206                    hru         206     6.4852E-6       0.01199       0.00000  
     207  hru0207                    hru         207     4.8444E-5       0.07542       0.00000  
     208  hru0208                    hru         208     6.3188E-5       0.09837       0.00000  
     209  hru0209                    hru         209     3.1594E-5       0.04919       0.00000  
     210  hru0210                    hru         210     2.2116E-5       0.03443       0.00000  
     211  hru0211                    hru         211     4.2087E-5       0.06552       0.00000  
     212  hru0212                    hru         212     5.0504E-5       0.07863       0.00000  
     213  hru0213                    hru         213     8.8850E-5       0.13833       0.00000  
     214  hru0214                    hru         214     4.2334E-5       0.06591       0.00000  
     215  hru0215                    hru         215     9.1254E-5       0.14207       0.00000  
     216  hru0216                    hru         216     2.6341E-5       0.04101       0.00000  
     217  hru0217                    hru         217     8.5109E-5       0.13250       0.00000  
     218  hru0218                    hru         218     2.7123E-5       0.04223       0.00000  
     219  hru0219                    hru         219     2.3382E-5       0.03640       0.00000  
     220  hru0220                    hru         220     8.3048E-5       0.12861       0.00000  
     221  hru0221                    hru         221     2.5166E-5       0.03897       0.00000  
     222  hru0222                    hru         222     2.2650E-5       0.03507       0.00000  
     223  hru0223                    hru         223     3.1542E-4       0.48845       0.00000  
     224  hru0224                    hru         224     9.9738E-5       0.15445       0.00000  
     225  hru0225                    hru         225     9.9738E-5       0.15445       0.00000  
     226  hru0226                    hru         226     5.7398E-5       0.08658       0.00000  
     227  hru0227                    hru         227     3.0465E-4       0.45955       0.00000  
     228  hru0228                    hru         228     1.0817E-4       0.16317       0.00000  
     229  hru0229                    hru         229     5.2558E-5       0.07928       0.00000  
     230  hru0230                    hru         230     1.4016E-4       0.21142       0.00000  
     231  hru0231                    hru         231     2.8698E-4       0.16160       0.00000  
     232  hru0232                    hru         232     1.0327E-4       0.05816       0.00000  
     233  hru0233                    hru         233     7.4477E-5       0.04194       0.00000  
     234  hru0234                    hru         234     3.9324E-4       0.22144       0.00000  
     235  hru0235                    hru         235     1.6484E-4       0.09282       0.00000  
     236  hru0236                    hru         236     1.6385E-4       0.09227       0.00000  
     237  hru0237                    hru         237     1.3009E-4       0.07325       0.00000  
     238  hru0238                    hru         238     4.2700E-5       0.02404       0.00000  
     239  hru0239                    hru         239     4.0714E-5       0.02293       0.00000  
     240  hru0240                    hru         240     1.1938E-4       0.06723       0.00000  
     241  hru0241                    hru         241     5.6954E-5       0.03207       0.00000  
     242  hru0242                    hru         242     5.9144E-5       0.03331       0.00000  
     243  hru0243                    hru         243     3.0667E-5       0.01727       0.00000  
     244  hru0244                    hru         244     7.5573E-5       0.04256       0.00000  
     245  hru0245                    hru         245     3.3953E-5       0.01912       0.00000  
     246  hru0246                    hru         246     5.5822E-5       0.07767       0.00000  
     247  hru0247                    hru         247     2.3171E-5       0.03224       0.00000  
     248  hru0248                    hru         248     1.3291E-4       0.18491       0.00000  
     249  hru0249                    hru         249     8.6720E-5       0.12065       0.00000  
     250  hru0250                    hru         250     5.5614E-5       0.07738       0.00000  
     251  hru0251                    hru         251     4.4302E-5       0.06164       0.00000  
     252  hru0252                    hru         252     3.3934E-5       0.04721       0.00000  
     253  hru0253                    hru         253     2.4508E-5       0.03410       0.00000  
     254  hru0254                    hru         254     6.0327E-5       0.08393       0.00000  
     255  hru0255                    hru         255     3.8647E-5       0.05377       0.00000  
     256  hru0256                    hru         256     1.6967E-5       0.02361       0.00000  
     257  hru0257                    hru         257     2.0016E-5       0.02785       0.00000  
     258  hru0258                    hru         258     2.9548E-5       0.04111       0.00000  
     259  hru0259                    hru         259     1.5251E-5       0.02122       0.00000  
     260  hru0260                    hru         260     9.5316E-6       0.01326       0.00000  
     261  hru0261                    hru         261     4.7658E-6       0.00663       0.00000  
     262  hru0262                    hru         262     1.0485E-5       0.01459       0.00000  
     263  hru0263                    hru         263     1.6204E-5       0.02254       0.00000  
     264  hru0264                    hru         264     3.4314E-5       0.04774       0.00000  
     265  hru0265                    hru         265     5.7190E-6       0.00796       0.00000  
     266  hru0266                    hru         266     9.4270E-5       0.06416       0.00000  
     267  hru0267                    hru         267     1.3721E-4       0.09339       0.00000  
     268  hru0268                    hru         268     6.2323E-4       0.42417       0.00000  
     269  hru0269                    hru         269     1.3043E-4       0.08877       0.00000  
     270  hru0270                    hru         270     1.0963E-4       0.07462       0.00000  
     271  hru0271                    hru         271     1.3799E-4       0.09392       0.00000  
     272  hru0272                    hru         272     1.2287E-5       0.00836       0.00000  
     273  hru0273                    hru         273     7.5610E-6       0.00515       0.00000  
     274  hru0274                    hru         274     3.5915E-5       0.02444       0.00000  
     275  hru0275                    hru         275     2.6223E-5       0.01785       0.00000  
     276  hru0276                    hru         276     4.7764E-5       0.03251       0.00000  
     277  hru0277                    hru         277     2.4350E-5       0.01657       0.00000  
     278  hru0278                    hru         278     1.4985E-5       0.01020       0.00000  
     279  hru0279                    hru         279     7.4924E-6       0.00510       0.00000  
     280  hru0280                    hru         280     1.6858E-5       0.01147       0.00000  
     281  hru0281                    hru         281     7.4924E-6       0.00510       0.00000  
     282  hru0282                    hru         282     3.0355E-5       0.02066       0.00000  
     283  hru0283                    hru         283     5.2337E-6       0.00356       0.00000  
     284  hru0284                    hru         284     1.0360E-4       0.12261       0.00000  
     285  hru0285                    hru         285     3.1655E-5       0.03746       0.00000  
     286  hru0286                    hru         286     1.7267E-5       0.02043       0.00000  
     287  hru0287                    hru         287     2.6771E-4       0.31683       0.00000  
     288  hru0288                    hru         288     5.1718E-5       0.06121       0.00000  
     289  hru0289                    hru         289     1.2662E-4       0.14985       0.00000  
     290  hru0290                    hru         290     3.6452E-5       0.04314       0.00000  
     291  hru0291                    hru         291     4.8922E-5       0.05790       0.00000  
     292  hru0292                    hru         292     3.3510E-5       0.03966       0.00000  
     293  hru0293                    hru         293     4.6542E-6       0.00551       0.00000  
     294  hru0294                    hru         294     4.6542E-6       0.00551       0.00000  
     295  hru0295                    hru         295     3.5972E-5       0.04257       0.00000  
     296  hru0296                    hru         296     7.7777E-6       0.00920       0.00000  
     297  hru0297                    hru         297     2.9787E-5       0.03525       0.00000  
     298  hru0298                    hru         298     2.6064E-5       0.03085       0.00000  
     299  hru0299                    hru         299     1.8617E-5       0.02203       0.00000  
     300  hru0300                    hru         300     3.2899E-4       0.20175       0.00000  
     301  hru0301                    hru         301     3.7996E-5       0.02330       0.00000  
     302  hru0302                    hru         302     1.6867E-4       0.10343       0.00000  
     303  hru0303                    hru         303     3.1338E-5       0.01922       0.00000  
     304  hru0304                    hru         304     1.9083E-4       0.11702       0.00000  
     305  hru0305                    hru         305     8.8077E-5       0.05401       0.00000  
     306  hru0306                    hru         306     4.0369E-5       0.02476       0.00000  
     307  hru0307                    hru         307     2.6551E-5       0.01628       0.00000  