object.cnt: written by SWAT+ editor v3.0.4 on 2024-12-06 20:47 for SWAT+ rev.61.0.1
name                   ls_area      tot_area       obj       hru      lhru       rtu      gwfl       aqu       cha       res       rec      exco       dlr       can       pmp       out      lcha     aqu2d       hrd       wro  
FINAL_TRY         943260.39000  943260.39000     10104      7910         0      1042         0       110         0         0         0         0         0         0         0         0      1042         0         0         0  
