pcp.cli: Precipitation file names - file written by SWAT+ editor 2024-12-06 20:14:05.579002
filename
chalaco.pcp
chuza.pcp
huamarca.pcp
huancabamba.pcp
miraflores.pcp
