rout_unit.con: written by SWAT+ editor v3.0.4 on 2024-12-06 20:47 for SWAT+ rev.61.0.1
      id  name                gis_id          area           lat           lon          elev       rtu               wst       cst      ovfl      rule   out_tot       obj_typ    obj_id       hyd_typ          frac  
       1  rtu00010                10     419.58000      -4.82835     -80.10664     613.52124         1      s5037s79792w         0         0         0         2           sdc         1           tot       1.00000           aqu         5           rhg       1.00000  
       2  rtu00020                20      66.42000      -4.82438     -80.09825     561.67073         2      s5037s79792w         0         0         0         2           sdc         2           tot       1.00000           aqu         5           rhg       1.00000  
       3  rtu00030                30     282.69000      -4.82656     -80.08804     749.55014         3      s5037s79792w         0         0         0         2           sdc         3           tot       1.00000           aqu         5           rhg       1.00000  
       4  rtu00040                40     537.84000      -4.84610     -80.10602     953.40663         4      s5037s79792w         0         0         0         2           sdc         4           tot       1.00000           aqu         5           rhg       1.00000  
       5  rtu00050                50     510.30000      -4.79959     -80.22007     178.47619         5      s5037s79792w         0         0         0         2           sdc         5           tot       1.00000           aqu         1           rhg       1.00000  
       6  rtu00060                60     772.74000      -4.77513     -80.22035     213.87002         6      s5037s79792w         0         0         0         2           sdc         6           tot       1.00000           aqu         1           rhg       1.00000  
       7  rtu00070                70     584.82000      -4.74527     -80.22874     240.46399         7      s5037s79792w         0         0         0         2           sdc         7           tot       1.00000           aqu         1           rhg       1.00000  
       8  rtu00080                80     166.05000      -4.79999     -80.33386     130.95610         8      s5167s80617w         0         0         0         2           sdc         8           tot       1.00000           aqu         2           rhg       1.00000  
       9  rtu00090                90     980.91000      -4.79880     -80.23857     166.75970         9      s5037s79792w         0         0         0         2           sdc         9           tot       1.00000           aqu         1           rhg       1.00000  
      10  rtu00100               100     123.93000      -4.79390     -80.26007     162.88235        10      s5167s80617w         0         0         0         2           sdc        10           tot       1.00000           aqu         1           rhg       1.00000  
      11  rtu00110               110      83.43000      -4.79397     -80.33395     136.63107        11      s5167s80617w         0         0         0         2           sdc        11           tot       1.00000           aqu         2           rhg       1.00000  
      12  rtu00120               120     293.22000      -4.77391     -80.25466     178.43370        12      s5037s79792w         0         0         0         2           sdc        12           tot       1.00000           aqu         1           rhg       1.00000  
      13  rtu00130               130     554.04000      -4.80796     -80.09766     775.42398        13      s5037s79792w         0         0         0         2           sdc        13           tot       1.00000           aqu         5           rhg       1.00000  
      14  rtu00140               140     782.46000      -4.81656     -80.16017     293.42340        14      s5037s79792w         0         0         0         2           sdc        14           tot       1.00000           aqu         3           rhg       1.00000  
      15  rtu00150               150     716.04000      -4.80583     -80.07397    1076.11652        15      s5037s79792w         0         0         0         2           sdc        15           tot       1.00000           aqu         5           rhg       1.00000  
      16  rtu00160               160    3722.76000      -4.79578     -80.14184     564.36728        16      s5037s79792w         0         0         0         2           sdc        16           tot       1.00000           aqu         3           rhg       1.00000  
      17  rtu00170               170     797.04000      -4.79531     -80.30421     151.00711        17      s5167s80617w         0         0         0         2           sdc        17           tot       1.00000           aqu         2           rhg       1.00000  
      18  rtu00180               180     526.50000      -4.78603     -80.20214     288.04923        18      s5037s79792w         0         0         0         2           sdc        18           tot       1.00000           aqu         1           rhg       1.00000  
      19  rtu00190               190     677.97000      -4.76089     -80.32261     167.64158        19      s5167s80617w         0         0         0         2           sdc        19           tot       1.00000           aqu         2           rhg       1.00000  
      20  rtu00200               200    1385.91000      -4.77135     -80.34169     235.18878        20      s5167s80617w         0         0         0         2           sdc        20           tot       1.00000           aqu         2           rhg       1.00000  
      21  rtu00210               210    1271.70000      -4.76769     -80.28033     181.86369        21      s5167s80617w         0         0         0         2           sdc        21           tot       1.00000           aqu         1           rhg       1.00000  
      22  rtu00220               220     961.47000      -4.75782     -80.24363     236.85931        22      s5037s79792w         0         0         0         2           sdc        22           tot       1.00000           aqu         1           rhg       1.00000  
      23  rtu00230               230     752.49000      -4.74899     -80.25585     233.40797        23      s5037s79792w         0         0         0         2           sdc        23           tot       1.00000           aqu         1           rhg       1.00000  
      24  rtu00240               240    1626.48000      -4.74957     -80.18874     322.31424        24      s5037s79792w         0         0         0         2           sdc        24           tot       1.00000           aqu         1           rhg       1.00000  
      25  rtu00250               250     599.40000      -4.75034     -80.27115     212.04595        25      s5167s80617w         0         0         0         2           sdc        25           tot       1.00000           aqu         1           rhg       1.00000  
      26  rtu00260               260     867.51000      -4.75757     -80.20352     276.68067        26      s5037s79792w         0         0         0         2           sdc        26           tot       1.00000           aqu         1           rhg       1.00000  
      27  rtu00270               270    1675.08000      -4.76354     -80.30595     168.72631        27      s5167s80617w         0         0         0         2           sdc        27           tot       1.00000           aqu         2           rhg       1.00000  
      28  rtu00280               280    1006.83000      -4.72403     -80.21583     316.38938        28      s5037s79792w         0         0         0         2           sdc        28           tot       1.00000           aqu         1           rhg       1.00000  
      29  rtu00290               290     562.14000      -4.92930     -80.50871      73.84582        29      s5167s80617w         0         0         0         2           sdc        29           tot       1.00000           aqu        10           rhg       1.00000  
      30  rtu00300               300     288.36000      -4.93789     -80.49283      90.10955        30      s5167s80617w         0         0         0         2           sdc        30           tot       1.00000           aqu        10           rhg       1.00000  
      31  rtu00310               310    1173.69000      -4.94625     -80.48158      92.59834        31      s5167s80617w         0         0         0         2           sdc        31           tot       1.00000           aqu        10           rhg       1.00000  
      32  rtu00320               320     904.77000      -4.92872     -80.46196      69.42346        32      s5167s80617w         0         0         0         2           sdc        32           tot       1.00000           aqu        10           rhg       1.00000  
      33  rtu00330               330    1043.28000      -4.92807     -80.43991      69.83540        33      s5167s80617w         0         0         0         2           sdc        33           tot       1.00000           aqu        10           rhg       1.00000  
      34  rtu00340               340     457.65000      -4.92292     -80.42111      65.99115        34      s5167s80617w         0         0         0         2           sdc        34           tot       1.00000           aqu        19           rhg       1.00000  
      35  rtu00350               350     412.29000      -4.92036     -80.40391      71.63458        35      s5167s80617w         0         0         0         2           sdc        35           tot       1.00000           aqu         7           rhg       1.00000  
      36  rtu00360               360    1137.24000      -4.92697     -80.38313      69.73932        36      s5167s80617w         0         0         0         2           sdc        36           tot       1.00000           aqu         7           rhg       1.00000  
      37  rtu00370               370       4.86000      -4.93678     -80.36550      59.66667        37      s5167s80617w         0         0         0         2           sdc        37           tot       1.00000           aqu         7           rhg       1.00000  
      38  rtu00380               380     607.50000      -4.93502     -80.35044      65.98800        38      s5167s80617w         0         0         0         2           sdc        38           tot       1.00000           aqu        20           rhg       1.00000  
      39  rtu00390               390    1338.12000      -4.95440     -80.33400      72.26695        39      s5167s80617w         0         0         0         2           sdc        39           tot       1.00000           aqu        16           rhg       1.00000  
      40  rtu00400               400    1143.72000      -4.97857     -80.31783      87.41856        40      s5167s80617w         0         0         0         2           sdc        40           tot       1.00000           aqu        29           rhg       1.00000  
      41  rtu00410               410     309.42000      -4.91864     -80.23842      96.76702        41      s5167s80617w         0         0         0         2           sdc        41           tot       1.00000           aqu        15           rhg       1.00000  
      42  rtu00420               420     635.04000      -4.90272     -80.21141     108.02168        42      s5037s79792w         0         0         0         2           sdc        42           tot       1.00000           aqu        15           rhg       1.00000  
      43  rtu00430               430     666.63000      -4.87624     -80.20333     125.93925        43      s5037s79792w         0         0         0         2           sdc        43           tot       1.00000           aqu        15           rhg       1.00000  
      44  rtu00440               440    3133.08000      -4.83707     -80.14959     413.62771        44      s5037s79792w         0         0         0         2           sdc        44           tot       1.00000           aqu         5           rhg       1.00000  
      45  rtu00450               450      25.92000      -4.93265     -80.42497      59.65625        45      s5167s80617w         0         0         0         2           sdc        45           tot       1.00000           aqu        22           rhg       1.00000  
      46  rtu00460               460    1451.52000      -4.95192     -80.39993      94.58761        46      s5167s80617w         0         0         0         2           sdc        46           tot       1.00000           aqu        23           rhg       1.00000  
      47  rtu00470               470    1629.72000      -4.98394     -80.36338     104.87425        47      s5167s80617w         0         0         0         2           sdc        47           tot       1.00000           aqu        23           rhg       1.00000  
      48  rtu00480               480     364.50000      -4.92070     -80.33690      69.53778        48      s5167s80617w         0         0         0         2           sdc        48           tot       1.00000           aqu         2           rhg       1.00000  
      49  rtu00490               490      38.88000      -4.91879     -80.32928      68.00000        49      s5167s80617w         0         0         0         2           sdc        49           tot       1.00000           aqu         2           rhg       1.00000  
      50  rtu00500               500     476.28000      -4.92302     -80.36066      65.48469        50      s5167s80617w         0         0         0         2           sdc        50           tot       1.00000           aqu         4           rhg       1.00000  
      51  rtu00510               510    2598.48000      -4.93101     -80.27361      81.93329        51      s5167s80617w         0         0         0         2           sdc        51           tot       1.00000           aqu         6           rhg       1.00000  
      52  rtu00520               520    1590.84000      -4.88422     -80.31129      90.33910        52      s5167s80617w         0         0         0         2           sdc        52           tot       1.00000           aqu         2           rhg       1.00000  
      53  rtu00530               530     465.75000      -4.86106     -80.21450     127.90435        53      s5037s79792w         0         0         0         2           sdc        53           tot       1.00000           aqu        13           rhg       1.00000  
      54  rtu00540               540     461.70000      -4.86215     -80.29452     105.83333        54      s5167s80617w         0         0         0         2           sdc        54           tot       1.00000           aqu         2           rhg       1.00000  
      55  rtu00550               550    1739.07000      -4.87720     -80.36827      98.68980        55      s5167s80617w         0         0         0         2           sdc        55           tot       1.00000           aqu         4           rhg       1.00000  
      56  rtu00560               560     625.32000      -4.83878     -80.20925     145.39767        56      s5037s79792w         0         0         0         2           sdc        56           tot       1.00000           aqu         1           rhg       1.00000  
      57  rtu00570               570    1152.63000      -4.84627     -80.32403     110.16725        57      s5167s80617w         0         0         0         2           sdc        57           tot       1.00000           aqu         2           rhg       1.00000  
      58  rtu00580               580    1833.03000      -4.98225     -80.47768     131.08794        58      s5167s80617w         0         0         0         2           sdc        58           tot       1.00000           aqu        10           rhg       1.00000  
      59  rtu00590               590     746.82000      -4.98945     -80.39967     133.24729        59      s5167s80617w         0         0         0         2           sdc        59           tot       1.00000           aqu        23           rhg       1.00000  
      60  rtu00600               600    1167.21000      -4.96931     -80.35358      98.56905        60      s5167s80617w         0         0         0         2           sdc        60           tot       1.00000           aqu         7           rhg       1.00000  
      61  rtu00610               610    1679.13000      -4.96975     -80.42474     107.93247        61      s5167s80617w         0         0         0         2           sdc        61           tot       1.00000           aqu        24           rhg       1.00000  
      62  rtu00620               620     609.12000      -4.82139     -80.22009     163.33910        62      s5037s79792w         0         0         0         2           sdc        62           tot       1.00000           aqu         1           rhg       1.00000  
      63  rtu00630               630     609.93000      -4.83853     -80.18900     162.63081        63      s5037s79792w         0         0         0         2           sdc        63           tot       1.00000           aqu         3           rhg       1.00000  
      64  rtu00640               640     605.07000      -4.81760     -80.33296     119.31727        64      s5167s80617w         0         0         0         2           sdc        64           tot       1.00000           aqu         2           rhg       1.00000  
      65  rtu00650               650    1538.19000      -4.81671     -80.29127     151.68352        65      s5167s80617w         0         0         0         2           sdc        65           tot       1.00000           aqu         2           rhg       1.00000  
      66  rtu00660               660    1365.66000      -4.81519     -80.35202     157.97746        66      s5167s80617w         0         0         0         2           sdc        66           tot       1.00000           aqu         4           rhg       1.00000  
      67  rtu00670               670    1392.39000      -4.81748     -80.37092     159.31065        67      s5167s80617w         0         0         0         2           sdc        67           tot       1.00000           aqu         4           rhg       1.00000  
      68  rtu00680               680    3433.59000      -4.84633     -80.24529     138.12479        68      s5167s80617w         0         0         0         2           sdc        68           tot       1.00000           aqu         6           rhg       1.00000  
      69  rtu00690               690     605.88000      -4.81401     -80.20228     188.94251        69      s5037s79792w         0         0         0         2           sdc        69           tot       1.00000           aqu         1           rhg       1.00000  
      70  rtu00700               700     582.39000      -4.81861     -80.31345     139.53129        70      s5167s80617w         0         0         0         2           sdc        70           tot       1.00000           aqu         2           rhg       1.00000  
      71  rtu00710               710     837.54000      -4.83186     -80.06812    1240.03482        71      s5037s79792w         0         0         0         2           sdc        71           tot       1.00000           aqu         5           rhg       1.00000  
      72  rtu00720               720     802.71000      -4.93309     -80.22495     126.19475        72      s5037s79792w         0         0         0         2           sdc        72           tot       1.00000           aqu        12           rhg       1.00000  
      73  rtu00730               730     762.21000      -4.90972     -80.19550     122.85972        73      s5037s79792w         0         0         0         2           sdc        73           tot       1.00000           aqu        12           rhg       1.00000  
      74  rtu00740               740      25.11000      -4.91053     -80.39602      59.67742        74      s5167s80617w         0         0         0         2           sdc        74           tot       1.00000           aqu         7           rhg       1.00000  
      75  rtu00750               750     327.24000      -4.90685     -80.41466      68.55693        75      s5167s80617w         0         0         0         2           sdc        75           tot       1.00000           aqu         9           rhg       1.00000  
      76  rtu00760               760     199.26000      -4.90257     -80.17223     129.67073        76      s5037s79792w         0         0         0         2           sdc        76           tot       1.00000           aqu        12           rhg       1.00000  
      77  rtu00770               770    1534.95000      -4.89891     -80.09205     657.60211        77      s5037s79792w         0         0         0         2           sdc        77           tot       1.00000           aqu        11           rhg       1.00000  
      78  rtu00780               780      44.55000      -4.93165     -79.98586    1168.94545        78      s5037s79792w         0         0         0         2           sdc        78           tot       1.00000           aqu        14           rhg       1.00000  
      79  rtu00790               790     976.05000      -4.90475     -80.51880      91.92199        79      s5167s80617w         0         0         0         2           sdc        79           tot       1.00000           aqu         8           rhg       1.00000  
      80  rtu00800               800     204.93000      -4.88361     -80.07443     807.69960        80      s5037s79792w         0         0         0         2           sdc        80           tot       1.00000           aqu        11           rhg       1.00000  
      81  rtu00810               810      51.84000      -4.92631     -79.98001    1256.64062        81      s5037s79792w         0         0         0         2           sdc        81           tot       1.00000           aqu        14           rhg       1.00000  
      82  rtu00820               820     102.87000      -4.92298     -79.97052    1394.54331        82      s5037s79792w         0         0         0         2           sdc        82           tot       1.00000           aqu        14           rhg       1.00000  
      83  rtu00830               830       5.67000      -4.91584     -79.96926    1396.57143        83      s5037s79792w         0         0         0         2           sdc        83           tot       1.00000           aqu        14           rhg       1.00000  
      84  rtu00840               840     520.83000      -4.89365     -80.38788      71.62053        84      s5167s80617w         0         0         0         2           sdc        84           tot       1.00000           aqu         7           rhg       1.00000  
      85  rtu00850               850    1271.70000      -4.89011     -80.44102      86.46879        85      s5167s80617w         0         0         0         2           sdc        85           tot       1.00000           aqu         9           rhg       1.00000  
      86  rtu00860               860     107.73000      -4.93356     -80.56710      70.90977        86      s5167s80617w         0         0         0         2           sdc        86           tot       1.00000           aqu        17           rhg       1.00000  
      87  rtu00870               870     162.81000      -4.86788     -80.38764      93.22886        87      s5167s80617w         0         0         0         2           sdc        87           tot       1.00000           aqu         7           rhg       1.00000  
      88  rtu00880               880     182.25000      -4.89246     -80.53305     101.19556        88      s5167s80617w         0         0         0         2           sdc        88           tot       1.00000           aqu         8           rhg       1.00000  
      89  rtu00890               890      28.35000      -4.91956     -79.96682    1440.65714        89      s5037s79792w         0         0         0         2           sdc        89           tot       1.00000           aqu        14           rhg       1.00000  
      90  rtu00900               900     269.73000      -4.90637     -79.95059    1706.09309        90      s5037s79792w         0         0         0         2           sdc        90           tot       1.00000           aqu        14           rhg       1.00000  
      91  rtu00910               910      83.43000      -4.91618     -80.17688     155.65049        91      s5037s79792w         0         0         0         2           sdc        91           tot       1.00000           aqu        12           rhg       1.00000  
      92  rtu00920               920    1696.14000      -4.88043     -80.03912    1303.17049        92      s5037s79792w         0         0         0         2           sdc        92           tot       1.00000           aqu        11           rhg       1.00000  
      93  rtu00930               930      61.56000      -4.88463     -80.44587      84.39474        93      s5167s80617w         0         0         0         2           sdc        93           tot       1.00000           aqu         9           rhg       1.00000  
      94  rtu00940               940    1315.44000      -4.86105     -80.51573     126.85345        94      s5167s80617w         0         0         0         2           sdc        94           tot       1.00000           aqu         8           rhg       1.00000  
      95  rtu00950               950    1576.26000      -4.88248     -80.15941     209.41675        95      s5037s79792w         0         0         0         2           sdc        95           tot       1.00000           aqu        12           rhg       1.00000  
      96  rtu00960               960     979.29000      -4.95654     -80.45033      97.52275        96      s5167s80617w         0         0         0         2           sdc        96           tot       1.00000           aqu        10           rhg       1.00000  
      97  rtu00970               970     690.93000      -4.96113     -80.50519     124.38218        97      s5167s80617w         0         0         0         2           sdc        97           tot       1.00000           aqu        17           rhg       1.00000  
      98  rtu00980               980     808.38000      -4.92077     -80.58379     103.78557        98      s5167s80617w         0         0         0         2           sdc        98           tot       1.00000           aqu        17           rhg       1.00000  
      99  rtu00990               990    1186.65000      -4.93103     -79.93048    2144.07986        99      s5037s79792w         0         0         0         2           sdc        99           tot       1.00000           aqu        14           rhg       1.00000  
     100  rtu01000              1000     678.78000      -4.93789     -79.96155    1631.30310       100      s5037s79792w         0         0         0         2           sdc       100           tot       1.00000           aqu        14           rhg       1.00000  
     101  rtu01010              1010     903.15000      -4.91306     -80.56515     101.41435       101      s5167s80617w         0         0         0         2           sdc       101           tot       1.00000           aqu        17           rhg       1.00000  
     102  rtu01020              1020     533.79000      -4.92550     -80.16220     162.84219       102      s5037s79792w         0         0         0         2           sdc       102           tot       1.00000           aqu        12           rhg       1.00000  
     103  rtu01030              1030     971.19000      -4.90684     -80.47822      83.49208       103      s5167s80617w         0         0         0         2           sdc       103           tot       1.00000           aqu        10           rhg       1.00000  
     104  rtu01040              1040     501.39000      -4.92593     -80.19868     150.11309       104      s5037s79792w         0         0         0         2           sdc       104           tot       1.00000           aqu        12           rhg       1.00000  
     105  rtu01050              1050     753.30000      -4.92039     -80.07542     887.38065       105      s5037s79792w         0         0         0         2           sdc       105           tot       1.00000           aqu        11           rhg       1.00000  
     106  rtu01060              1060     578.34000      -4.91734     -79.93796    1965.37115       106      s5037s79792w         0         0         0         2           sdc       106           tot       1.00000           aqu        14           rhg       1.00000  
     107  rtu01070              1070     700.65000      -4.90887     -80.30942      84.98960       107      s5167s80617w         0         0         0         2           sdc       107           tot       1.00000           aqu         2           rhg       1.00000  
     108  rtu01080              1080    1355.13000      -4.91910     -80.54434      86.49910       108      s5167s80617w         0         0         0         2           sdc       108           tot       1.00000           aqu        17           rhg       1.00000  
     109  rtu01090              1090     681.21000      -4.91037     -80.14050     245.02021       109      s5037s79792w         0         0         0         2           sdc       109           tot       1.00000           aqu        12           rhg       1.00000  
     110  rtu01100              1100    2025.81000      -4.91971     -80.29492      85.10116       110      s5167s80617w         0         0         0         2           sdc       110           tot       1.00000           aqu        16           rhg       1.00000  
     111  rtu01110              1110    1047.33000      -4.91268     -79.91302    2598.76643       111      s5037s79792w         0         0         0         2           sdc       111           tot       1.00000           aqu        14           rhg       1.00000  