rout_unit.ele: written by SWAT+ editor v3.0.4 on 2024-12-06 20:47 for SWAT+ rev.61.0.1
      id  name                   obj_typ    obj_id          frac               dlr  
       1  hru0001                    hru         1     1.2730E-1                 0  
       2  hru0002                    hru         2     1.0306E-1                 0  
       3  hru0003                    hru         3     2.4342E-2                 0  
       4  hru0004                    hru         4     1.7788E-2                 0  
       5  hru0005                    hru         5     9.3622E-3                 0  
       6  hru0006                    hru         6     5.8719E-2                 0  
       7  hru0007                    hru         7     1.6261E-2                 0  
       8  hru0008                    hru         8     1.8971E-2                 0  
       9  hru0009                    hru         9     1.9874E-2                 0  
      10  hru0010                    hru        10     3.9816E-2                 0  
      11  hru0011                    hru        11     2.0394E-2                 0  
      12  hru0012                    hru        12     1.7480E-2                 0  
      13  hru0013                    hru        13     4.0493E-2                 0  
      14  hru0014                    hru        14     8.9662E-2                 0  
      15  hru0015                    hru        15     4.8205E-2                 0  
      16  hru0016                    hru        16     8.5833E-2                 0  
      17  hru0017                    hru        17     6.4375E-2                 0  
      18  hru0018                    hru        18     4.9744E-2                 0  
      19  hru0019                    hru        19     6.5603E-2                 0  
      20  hru0020                    hru        20     2.7572E-2                 0  
      21  hru0021                    hru        21     5.5145E-2                 0  
      22  hru0022                    hru        22     4.7576E-2                 0  
      23  hru0023                    hru        23     2.9159E-2                 0  
      24  hru0024                    hru        24     8.8772E-2                 0  
      25  hru0025                    hru        25     2.7083E-2                 0  
      26  hru0026                    hru        26     1.6551E-2                 0  
      27  hru0027                    hru        27     5.8534E-2                 0  
      28  hru0028                    hru        28     3.1640E-2                 0  
      29  hru0029                    hru        29     5.3788E-2                 0  
      30  hru0030                    hru        30     9.1331E-2                 0  
      31  hru0031                    hru        31     1.6409E-1                 0  
      32  hru0032                    hru        32     4.7988E-2                 0  
      33  hru0033                    hru        33     8.5099E-2                 0  
      34  hru0034                    hru        34     2.5839E-1                 0  
      35  hru0035                    hru        35     9.6881E-2                 0  
      36  hru0036                    hru        36     3.5321E-2                 0  
      37  hru0037                    hru        37     1.6147E-2                 0  
      38  hru0038                    hru        38     3.9825E-3                 0  
      39  hru0039                    hru        39     4.9782E-3                 0  
      40  hru0040                    hru        40     1.4935E-2                 0  
      41  hru0041                    hru        41     2.9869E-3                 0  
      42  hru0042                    hru        42     5.4555E-2                 0  
      43  hru0043                    hru        43     1.5737E-2                 0  
      44  hru0044                    hru        44     2.0983E-2                 0  
      45  hru0045                    hru        45     5.7051E-2                 0  
      46  hru0046                    hru        46     1.4317E-1                 0  
      47  hru0047                    hru        47     1.4202E-1                 0  
      48  hru0048                    hru        48     6.4138E-3                 0  
      49  hru0049                    hru        49     4.9478E-2                 0  
      50  hru0050                    hru        50     1.7867E-1                 0  
      51  hru0051                    hru        51     1.5670E-1                 0  
      52  hru0052                    hru        52     1.2474E-1                 0  
      53  hru0053                    hru        53     5.0027E-2                 0  
      54  hru0054                    hru        54     5.6524E-2                 0  
      55  hru0055                    hru        55     2.4476E-2                 0  
      56  hru0056                    hru        56     7.0367E-2                 0  
      57  hru0057                    hru        57     1.9580E-2                 0  
      58  hru0058                    hru        58     2.7535E-2                 0  
      59  hru0059                    hru        59     1.5481E-1                 0  
      60  hru0060                    hru        60     4.3444E-2                 0  
      61  hru0061                    hru        61     3.1206E-2                 0  
      62  hru0062                    hru        62     4.3444E-2                 0  
      63  hru0063                    hru        63     1.0063E-1                 0  
      64  hru0064                    hru        64     3.6397E-2                 0  
      65  hru0065                    hru        65     7.7075E-2                 0  
      66  hru0066                    hru        66     7.8709E-2                 0  
      67  hru0067                    hru        67     6.1040E-2                 0  
      68  hru0068                    hru        68     4.4393E-2                 0  
      69  hru0069                    hru        69     1.4551E-1                 0  
      70  hru0070                    hru        70     3.9461E-2                 0  
      71  hru0071                    hru        71     4.5626E-2                 0  
      72  hru0072                    hru        72     2.0963E-2                 0  
      73  hru0073                    hru        73     5.0559E-2                 0  
      74  hru0074                    hru        74     2.9595E-2                 0  
      75  hru0075                    hru        75     2.0963E-2                 0  
      76  hru0076                    hru        76     8.8786E-2                 0  
      77  hru0077                    hru        77     4.3160E-2                 0  
      78  hru0078                    hru        78     5.4810E-2                 0  
      79  hru0079                    hru        79     2.5297E-2                 0  
      80  hru0080                    hru        80     1.5459E-2                 0  
      81  hru0081                    hru        81     1.5235E-2                 0  
      82  hru0082                    hru        82     4.1550E-3                 0  
      83  hru0083                    hru        83     1.4224E-1                 0  
      84  hru0084                    hru        84     2.1785E-2                 0  
      85  hru0085                    hru        85     1.0401E-1                 0  
      86  hru0086                    hru        86     2.5682E-2                 0  
      87  hru0087                    hru        87     1.5576E-2                 0  
      88  hru0088                    hru        88     4.6729E-2                 0  
      89  hru0089                    hru        89     1.2628E-1                 0  
      90  hru0090                    hru        90     3.9003E-2                 0  
      91  hru0091                    hru        91     3.2762E-2                 0  
      92  hru0092                    hru        92     1.0921E-2                 0  
      93  hru0093                    hru        93     3.1678E-2                 0  
      94  hru0094                    hru        94     1.7423E-2                 0  
      95  hru0095                    hru        95     3.9598E-2                 0  
      96  hru0096                    hru        96     3.2721E-2                 0  
      97  hru0097                    hru        97     1.3088E-2                 0  
      98  hru0098                    hru        98     9.8162E-3                 0  
      99  hru0099                    hru        99     1.7840E-1                 0  
     100  hru0100                    hru       100     3.8449E-2                 0  
     101  hru0101                    hru       101     1.0960E-1                 0  
     102  hru0102                    hru       102     1.4092E-2                 0  
     103  hru0103                    hru       103     5.4976E-2                 0  
     104  hru0104                    hru       104     7.6356E-3                 0  
     105  hru0105                    hru       105     1.2828E-1                 0  
     106  hru0106                    hru       106     5.0529E-2                 0  
     107  hru0107                    hru       107     1.4211E-2                 0  
     108  hru0108                    hru       108     3.1581E-3                 0  
     109  hru0109                    hru       109     1.4211E-2                 0  
     110  hru0110                    hru       110     1.5790E-3                 0  
     111  hru0111                    hru       111     3.1581E-2                 0  
     112  hru0112                    hru       112     1.2113E-1                 0  
     113  hru0113                    hru       113     2.5956E-2                 0  
     114  hru0114                    hru       114     1.9211E-1                 0  
     115  hru0115                    hru       115     4.2999E-1                 0  
     116  hru0116                    hru       116     6.2809E-2                 0  
     117  hru0117                    hru       117     1.6801E-1                 0  
     118  hru0118                    hru       118     1.5027E-1                 0  
     119  hru0119                    hru       119     1.1910E-1                 0  
     120  hru0120                    hru       120     7.5691E-2                 0  
     121  hru0121                    hru       121     1.7718E-1                 0  
     122  hru0122                    hru       122     9.1198E-2                 0  
     123  hru0123                    hru       123     2.0654E-2                 0  
     124  hru0124                    hru       124     1.8588E-2                 0  
     125  hru0125                    hru       125     2.9948E-2                 0  
     126  hru0126                    hru       126     7.3896E-2                 0  
     127  hru0127                    hru       127     9.5009E-2                 0  
     128  hru0128                    hru       128     2.4276E-2                 0  
     129  hru0129                    hru       129     2.8945E-2                 0  
     130  hru0130                    hru       130     9.5238E-2                 0  
     131  hru0131                    hru       131     1.4311E-1                 0  
     132  hru0132                    hru       132     3.1305E-2                 0  
     133  hru0133                    hru       133     1.5166E-2                 0  
     134  hru0134                    hru       134     1.1916E-2                 0  
     135  hru0135                    hru       135     3.4666E-2                 0  
     136  hru0136                    hru       136     1.4191E-1                 0  
     137  hru0137                    hru       137     3.8999E-2                 0  
     138  hru0138                    hru       138     4.3332E-2                 0  
     139  hru0139                    hru       139     6.6081E-2                 0  
     140  hru0140                    hru       140     1.4437E-1                 0  
     141  hru0141                    hru       141     5.8463E-2                 0  
     142  hru0142                    hru       142     7.9723E-3                 0  
     143  hru0143                    hru       143     6.5480E-2                 0  
     144  hru0144                    hru       144     1.3548E-2                 0  
     145  hru0145                    hru       145     4.7687E-2                 0  
     146  hru0146                    hru       146     9.9811E-3                 0  
     147  hru0147                    hru       147     1.5476E-2                 0  
     148  hru0148                    hru       148     5.5270E-2                 0  
     149  hru0149                    hru       149     5.5270E-2                 0  
     150  hru0150                    hru       150     2.0821E-1                 0  
     151  hru0151                    hru       151     5.7265E-1                 0  
     152  hru0152                    hru       152     7.5439E-2                 0  
     153  hru0153                    hru       153     1.4370E-1                 0  
     154  hru0154                    hru       154     1.2436E-1                 0  
     155  hru0155                    hru       155     3.4494E-2                 0  
     156  hru0156                    hru       156     2.2694E-2                 0  
     157  hru0157                    hru       157     2.6662E-2                 0  
     158  hru0158                    hru       158     6.6655E-3                 0  
     159  hru0159                    hru       159     1.6274E-1                 0  
     160  hru0160                    hru       160     2.4685E-2                 0  
     161  hru0161                    hru       161     1.3398E-1                 0  
     162  hru0162                    hru       162     2.3423E-2                 0  
     163  hru0163                    hru       163     1.6013E-1                 0  
     164  hru0164                    hru       164     4.8846E-2                 0  
     165  hru0165                    hru       165     1.2664E-2                 0  
     166  hru0166                    hru       166     5.3605E-2                 0  
     167  hru0167                    hru       167     1.8157E-2                 0  
     168  hru0168                    hru       168     1.8795E-2                 0  
     169  hru0169                    hru       169     9.6831E-2                 0  
     170  hru0170                    hru       170     3.1268E-2                 0  
     171  hru0171                    hru       171     2.2113E-1                 0  
     172  hru0172                    hru       172     2.2644E-1                 0  
     173  hru0173                    hru       173     4.5226E-2                 0  
     174  hru0174                    hru       174     2.0873E-2                 0  
     175  hru0175                    hru       175     1.0437E-2                 0  
     176  hru0176                    hru       176     2.2721E-2                 0  
     177  hru0177                    hru       177     6.8162E-2                 0  
     178  hru0178                    hru       178     2.0126E-1                 0  
     179  hru0179                    hru       179     1.1025E-1                 0  
     180  hru0180                    hru       180     7.3502E-2                 0  
     181  hru0181                    hru       181     6.1905E-1                 0  
     182  hru0182                    hru       182     7.9365E-2                 0  
     183  hru0183                    hru       183     1.5873E-2                 0  
     184  hru0184                    hru       184     1.1905E-1                 0  
     185  hru0185                    hru       185     1.6667E-1                 0  
     186  hru0186                    hru       186     8.8670E-2                 0  
     187  hru0187                    hru       187     1.8757E-2                 0  
     188  hru0188                    hru       188     3.5809E-2                 0  
     189  hru0189                    hru       189     9.1150E-2                 0  
     190  hru0190                    hru       190     2.1160E-2                 0  
     191  hru0191                    hru       191     4.7203E-2                 0  
     192  hru0192                    hru       192     4.3531E-2                 0  
     193  hru0193                    hru       193     7.4873E-2                 0  
     194  hru0194                    hru       194     3.1342E-2                 0  
     195  hru0195                    hru       195     1.0059E-1                 0  
     196  hru0196                    hru       196     3.8408E-2                 0  
     197  hru0197                    hru       197     9.5918E-2                 0  
     198  hru0198                    hru       198     1.6288E-2                 0  
     199  hru0199                    hru       199     7.8091E-2                 0  
     200  hru0200                    hru       200     1.4198E-2                 0  
     201  hru0201                    hru       201     7.2860E-2                 0  
     202  hru0202                    hru       202     2.5906E-2                 0  
     203  hru0203                    hru       203     1.6191E-2                 0  
     204  hru0204                    hru       204     3.9388E-2                 0  
     205  hru0205                    hru       205     3.7675E-2                 0  
     206  hru0206                    hru       206     1.1988E-2                 0  
     207  hru0207                    hru       207     7.5420E-2                 0  
     208  hru0208                    hru       208     9.8374E-2                 0  
     209  hru0209                    hru       209     4.9187E-2                 0  
     210  hru0210                    hru       210     3.4431E-2                 0  
     211  hru0211                    hru       211     6.5522E-2                 0  
     212  hru0212                    hru       212     7.8627E-2                 0  
     213  hru0213                    hru       213     1.3833E-1                 0  
     214  hru0214                    hru       214     6.5908E-2                 0  
     215  hru0215                    hru       215     1.4207E-1                 0  
     216  hru0216                    hru       216     4.1009E-2                 0  
     217  hru0217                    hru       217     1.3250E-1                 0  
     218  hru0218                    hru       218     4.2226E-2                 0  
     219  hru0219                    hru       219     3.6401E-2                 0  
     220  hru0220                    hru       220     1.2861E-1                 0  
     221  hru0221                    hru       221     3.8971E-2                 0  
     222  hru0222                    hru       222     3.5074E-2                 0  
     223  hru0223                    hru       223     4.8845E-1                 0  
     224  hru0224                    hru       224     1.5445E-1                 0  
     225  hru0225                    hru       225     1.5445E-1                 0  
     226  hru0226                    hru       226     8.6582E-2                 0  
     227  hru0227                    hru       227     4.5955E-1                 0  
     228  hru0228                    hru       228     1.6317E-1                 0  
     229  hru0229                    hru       229     7.9281E-2                 0  
     230  hru0230                    hru       230     2.1142E-1                 0  
     231  hru0231                    hru       231     1.6160E-1                 0  
     232  hru0232                    hru       232     5.8155E-2                 0  
     233  hru0233                    hru       233     4.1939E-2                 0  
     234  hru0234                    hru       234     2.2144E-1                 0  
     235  hru0235                    hru       235     9.2825E-2                 0  
     236  hru0236                    hru       236     9.2266E-2                 0  
     237  hru0237                    hru       237     7.3253E-2                 0  
     238  hru0238                    hru       238     2.4045E-2                 0  
     239  hru0239                    hru       239     2.2927E-2                 0  
     240  hru0240                    hru       240     6.7227E-2                 0  
     241  hru0241                    hru       241     3.2072E-2                 0  
     242  hru0242                    hru       242     3.3305E-2                 0  
     243  hru0243                    hru       243     1.7269E-2                 0  
     244  hru0244                    hru       244     4.2556E-2                 0  
     245  hru0245                    hru       245     1.9120E-2                 0  
     246  hru0246                    hru       246     7.7665E-2                 0  
     247  hru0247                    hru       247     3.2238E-2                 0  
     248  hru0248                    hru       248     1.8491E-1                 0  
     249  hru0249                    hru       249     1.2065E-1                 0  
     250  hru0250                    hru       250     7.7375E-2                 0  
     251  hru0251                    hru       251     6.1638E-2                 0  
     252  hru0252                    hru       252     4.7212E-2                 0  
     253  hru0253                    hru       253     3.4098E-2                 0  
     254  hru0254                    hru       254     8.3933E-2                 0  
     255  hru0255                    hru       255     5.3769E-2                 0  
     256  hru0256                    hru       256     2.3606E-2                 0  
     257  hru0257                    hru       257     2.7849E-2                 0  
     258  hru0258                    hru       258     4.1110E-2                 0  
     259  hru0259                    hru       259     2.1218E-2                 0  
     260  hru0260                    hru       260     1.3261E-2                 0  
     261  hru0261                    hru       261     6.6307E-3                 0  
     262  hru0262                    hru       262     1.4587E-2                 0  
     263  hru0263                    hru       263     2.2544E-2                 0  
     264  hru0264                    hru       264     4.7741E-2                 0  
     265  hru0265                    hru       265     7.9568E-3                 0  
     266  hru0266                    hru       266     6.4161E-2                 0  
     267  hru0267                    hru       267     9.3389E-2                 0  
     268  hru0268                    hru       268     4.2417E-1                 0  
     269  hru0269                    hru       269     8.8769E-2                 0  
     270  hru0270                    hru       270     7.4618E-2                 0  
     271  hru0271                    hru       271     9.3915E-2                 0  
     272  hru0272                    hru       272     8.3623E-3                 0  
     273  hru0273                    hru       273     5.1461E-3                 0  
     274  hru0274                    hru       274     2.4444E-2                 0  
     275  hru0275                    hru       275     1.7848E-2                 0  
     276  hru0276                    hru       276     3.2509E-2                 0  
     277  hru0277                    hru       277     1.6573E-2                 0  
     278  hru0278                    hru       278     1.0199E-2                 0  
     279  hru0279                    hru       279     5.0994E-3                 0  
     280  hru0280                    hru       280     1.1474E-2                 0  
     281  hru0281                    hru       281     5.0994E-3                 0  
     282  hru0282                    hru       282     2.0660E-2                 0  
     283  hru0283                    hru       283     3.5621E-3                 0  
     284  hru0284                    hru       284     1.2261E-1                 0  
     285  hru0285                    hru       285     3.7463E-2                 0  
     286  hru0286                    hru       286     2.0434E-2                 0  
     287  hru0287                    hru       287     3.1683E-1                 0  
     288  hru0288                    hru       288     6.1205E-2                 0  
     289  hru0289                    hru       289     1.4985E-1                 0  
     290  hru0290                    hru       290     4.3139E-2                 0  
     291  hru0291                    hru       291     5.7897E-2                 0  
     292  hru0292                    hru       292     3.9658E-2                 0  
     293  hru0293                    hru       293     5.5080E-3                 0  
     294  hru0294                    hru       294     5.5080E-3                 0  
     295  hru0295                    hru       295     4.2571E-2                 0  
     296  hru0296                    hru       296     9.2045E-3                 0  
     297  hru0297                    hru       297     3.5251E-2                 0  
     298  hru0298                    hru       298     3.0845E-2                 0  
     299  hru0299                    hru       299     2.2032E-2                 0  
     300  hru0300                    hru       300     2.0175E-1                 0  
     301  hru0301                    hru       301     2.3300E-2                 0  
     302  hru0302                    hru       302     1.0343E-1                 0  
     303  hru0303                    hru       303     1.9217E-2                 0  
     304  hru0304                    hru       304     1.1702E-1                 0  
     305  hru0305                    hru       305     5.4011E-2                 0  
     306  hru0306                    hru       306     2.4755E-2                 0  
     307  hru0307                    hru       307     1.6282E-2                 0  
     308  hru0308                    hru       308     3.3687E-3                 0  
     309  hru0309                    hru       309     1.0371E-2                 0  
     310  hru0310                    hru       310     2.1834E-3                 0  
     311  hru0311                    hru       311     3.2751E-3                 0  
     312  hru0312                    hru       312     4.8787E-2                 0  
     313  hru0313                    hru       313     2.1081E-2                 0  
     314  hru0314                    hru       314     1.0092E-1                 0  
     315  hru0315                    hru       315     6.4749E-2                 0  
     316  hru0316                    hru       316     1.8550E-1                 0  
     317  hru0317                    hru       317     1.4558E-1                 0  
     318  hru0318                    hru       318     3.8822E-1                 0  
     319  hru0319                    hru       319     6.0660E-2                 0  
     320  hru0320                    hru       320     1.0919E-1                 0  
     321  hru0321                    hru       321     1.2132E-2                 0  
     322  hru0322                    hru       322     2.1474E-1                 0  
     323  hru0323                    hru       323     6.9474E-2                 0  
     324  hru0324                    hru       324     1.9290E-1                 0  
     325  hru0325                    hru       325     1.9290E-1                 0  
     326  hru0326                    hru       326     2.8935E-1                 0  
     327  hru0327                    hru       327     8.4392E-2                 0  
     328  hru0328                    hru       328     3.6168E-2                 0  
     329  hru0329                    hru       329     1.8027E-1                 0  
     330  hru0330                    hru       330     2.4035E-2                 0  
     331  hru0331                    hru       331     5.4183E-2                 0  
     332  hru0332                    hru       332     6.1708E-2                 0  
     333  hru0333                    hru       333     2.7091E-2                 0  
     334  hru0334                    hru       334     3.1607E-2                 0  
     335  hru0335                    hru       335     1.2041E-2                 0  
     336  hru0336                    hru       336     1.0424E-1                 0  
     337  hru0337                    hru       337     1.4593E-1                 0  
     338  hru0338                    hru       338     2.5979E-1                 0  
     339  hru0339                    hru       339     7.6550E-2                 0  
     340  hru0340                    hru       340     2.7688E-2                 0  
     341  hru0341                    hru       341     1.2896E-1                 0  
     342  hru0342                    hru       342     3.4388E-2                 0  
     343  hru0343                    hru       343     3.5821E-2                 0  
     344  hru0344                    hru       344     2.3544E-2                 0  
     345  hru0345                    hru       345     3.2962E-2                 0  
     346  hru0346                    hru       346     8.0050E-2                 0  
     347  hru0347                    hru       347     2.3544E-2                 0  
     348  hru0348                    hru       348     2.0181E-2                 0  
     349  hru0349                    hru       349     3.3634E-3                 0  
     350  hru0350                    hru       350     9.6453E-2                 0  