soil_plant.ini: written by SWAT+ editor v3.0.4 on 2024-12-06 20:48 for SWAT+ rev.61.0.1
name                   sw_frac         nutrients              pest              path              hmet              salt  
soilplant1             0.00000          soilnut1              null              null              null              null  
