time.sim: written by SWAT+ editor v3.0.4 on 2024-12-06 20:47 for SWAT+ rev.61.0.1
day_start  yrc_start   day_end   yrc_end      step  
       0       1981         67       1983          0 
