topography.hyd: written by SWAT+ editor v3.0.4 on 2024-12-06 20:48 for SWAT+ rev.61.0.1
name                       slp       slp_len       lat_len      dist_cha         depos  
topohru0001            0.52526      10.00000      10.00000     121.00000       0.00000  
topohru0002            0.19696      10.00000      10.00000     121.00000       0.00000  
topohru0003            0.46730      10.00000      10.00000     121.00000       0.00000  
topohru0004            0.19644      10.00000      10.00000     121.00000       0.00000  
topohru0005            0.02564      90.00000      90.00000     121.00000       0.00000  
topohru0006            0.18070      10.00000      10.00000     121.00000       0.00000  
topohru0007            0.38611      10.00000      10.00000     121.00000       0.00000  
topohru0008            0.06830      30.00000      30.00000     121.00000       0.00000  
topohru0009            0.03224      60.00000      60.00000     121.00000       0.00000  
topohru0010            0.17328      10.00000      10.00000     121.00000       0.00000  
topohru0011            0.06886      30.00000      30.00000     121.00000       0.00000  
topohru0012            0.03313      60.00000      60.00000     121.00000       0.00000  
topohru0013            0.06258      30.00000      30.00000     121.00000       0.00000  
topohru0014            0.15487      10.00000      10.00000     121.00000       0.00000  
topohru0015            0.03385      60.00000      60.00000     121.00000       0.00000  
topohru0016            0.13579      10.00000      10.00000     121.00000       0.00000  
topohru0017            0.06546      30.00000      30.00000     121.00000       0.00000  
topohru0018            0.03159      60.00000      60.00000     121.00000       0.00000  
topohru0019            0.14540      10.00000      10.00000     121.00000       0.00000  
topohru0020            0.06621      30.00000      30.00000     121.00000       0.00000  
topohru0021            0.03295      60.00000      60.00000     121.00000       0.00000  
topohru0022            0.52350      10.00000      10.00000     121.00000       0.00000  
topohru0023            0.24804      10.00000      10.00000     121.00000       0.00000  
topohru0024            0.02400      90.00000      90.00000     121.00000       0.00000  
topohru0025            0.06809      30.00000      30.00000     121.00000       0.00000  
topohru0026            0.10281      10.00000      10.00000     121.00000       0.00000  
topohru0027            0.14063      10.00000      10.00000     121.00000       0.00000  
topohru0028            0.03468      60.00000      60.00000     121.00000       0.00000  
topohru0029            0.06728      30.00000      30.00000     121.00000       0.00000  
topohru0030            0.06408      30.00000      30.00000     121.00000       0.00000  
topohru0031            0.03184      60.00000      60.00000     121.00000       0.00000  
topohru0032            0.10530      10.00000      10.00000     121.00000       0.00000  
topohru0033            0.06380      30.00000      30.00000     121.00000       0.00000  
topohru0034            0.02578      90.00000      90.00000     121.00000       0.00000  
topohru0035            0.46573      10.00000      10.00000     121.00000       0.00000  
topohru0036            0.21188      10.00000      10.00000     121.00000       0.00000  
topohru0037            0.02455      90.00000      90.00000     121.00000       0.00000  
topohru0038            0.38505      10.00000      10.00000     121.00000       0.00000  
topohru0039            0.24437      10.00000      10.00000     121.00000       0.00000  
topohru0040            0.02410      90.00000      90.00000     121.00000       0.00000  
topohru0041            0.05963      30.00000      30.00000     121.00000       0.00000  
topohru0042            0.14407      10.00000      10.00000     121.00000       0.00000  
topohru0043            0.06386      30.00000      30.00000     121.00000       0.00000  
topohru0044            0.03499      60.00000      60.00000     121.00000       0.00000  
topohru0045            0.06352      30.00000      30.00000     121.00000       0.00000  
topohru0046            0.03284      60.00000      60.00000     121.00000       0.00000  
topohru0047            0.02586      90.00000      90.00000     121.00000       0.00000  
topohru0048            0.06328      30.00000      30.00000     121.00000       0.00000  
topohru0049            0.02702      90.00000      90.00000     121.00000       0.00000  
topohru0050            0.02221      90.00000      90.00000     121.00000       0.00000  
topohru0051            0.01784      90.00000      90.00000     121.00000       0.00000  
topohru0052            0.14827      10.00000      10.00000     121.00000       0.00000  
topohru0053            0.06617      30.00000      30.00000     121.00000       0.00000  
topohru0054            0.02722      90.00000      90.00000     121.00000       0.00000  
topohru0055            0.37952      10.00000      10.00000     121.00000       0.00000  
topohru0056            0.16663      10.00000      10.00000     121.00000       0.00000  
topohru0057            0.06822      30.00000      30.00000     121.00000       0.00000  
topohru0058            0.02941      90.00000      90.00000     121.00000       0.00000  
topohru0059            0.16194      10.00000      10.00000     121.00000       0.00000  
topohru0060            0.02985      90.00000      90.00000     121.00000       0.00000  
topohru0061            0.38586      10.00000      10.00000     121.00000       0.00000  
topohru0062            0.06578      30.00000      30.00000     121.00000       0.00000  
topohru0063            0.15033      10.00000      10.00000     121.00000       0.00000  
topohru0064            0.06719      30.00000      30.00000     121.00000       0.00000  
topohru0065            0.02590      90.00000      90.00000     121.00000       0.00000  
topohru0066            0.19759      10.00000      10.00000     121.00000       0.00000  
topohru0067            0.39153      10.00000      10.00000     121.00000       0.00000  
topohru0068            0.36766      10.00000      10.00000     121.00000       0.00000  
topohru0069            0.16621      10.00000      10.00000     121.00000       0.00000  
topohru0070            0.02924      90.00000      90.00000     121.00000       0.00000  
topohru0071            0.06728      30.00000      30.00000     121.00000       0.00000  
topohru0072            0.06693      30.00000      30.00000     121.00000       0.00000  
topohru0073            0.03221      60.00000      60.00000     121.00000       0.00000  
topohru0074            0.12357      10.00000      10.00000     121.00000       0.00000  
topohru0075            0.10160      10.00000      10.00000     121.00000       0.00000  
topohru0076            0.03159      60.00000      60.00000     121.00000       0.00000  
topohru0077            0.06286      30.00000      30.00000     121.00000       0.00000  
topohru0078            0.38522      10.00000      10.00000     121.00000       0.00000  
topohru0079            0.21869      10.00000      10.00000     121.00000       0.00000  
topohru0080            0.02308      90.00000      90.00000     121.00000       0.00000  
topohru0081            0.03080      60.00000      60.00000     121.00000       0.00000  
topohru0082            0.05957      30.00000      30.00000     121.00000       0.00000  
topohru0083            0.02751      90.00000      90.00000     121.00000       0.00000  
topohru0084            0.06086      30.00000      30.00000     121.00000       0.00000  
topohru0085            0.02437      90.00000      90.00000     121.00000       0.00000  
topohru0086            0.06175      30.00000      30.00000     121.00000       0.00000  
topohru0087            0.06232      30.00000      30.00000     121.00000       0.00000  
topohru0088            0.03063      60.00000      60.00000     121.00000       0.00000  
topohru0089            0.02977      90.00000      90.00000     121.00000       0.00000  
topohru0090            0.19733      10.00000      10.00000     121.00000       0.00000  
topohru0091            0.36947      10.00000      10.00000     121.00000       0.00000  
topohru0092            0.01738      90.00000      90.00000     121.00000       0.00000  
topohru0093            0.17461      10.00000      10.00000     121.00000       0.00000  
topohru0094            0.06428      30.00000      30.00000     121.00000       0.00000  
topohru0095            0.02383      90.00000      90.00000     121.00000       0.00000  
topohru0096            0.14134      10.00000      10.00000     121.00000       0.00000  
topohru0097            0.06562      30.00000      30.00000     121.00000       0.00000  
topohru0098            0.03801      60.00000      60.00000     121.00000       0.00000  
topohru0099            0.02660      90.00000      90.00000     121.00000       0.00000  
topohru0100            0.06390      30.00000      30.00000     121.00000       0.00000  
topohru0101            0.02380      90.00000      90.00000     121.00000       0.00000  
topohru0102            0.06073      30.00000      30.00000     121.00000       0.00000  
topohru0103            0.02518      90.00000      90.00000     121.00000       0.00000  
topohru0104            0.06504      30.00000      30.00000     121.00000       0.00000  
topohru0105            0.02138      90.00000      90.00000     121.00000       0.00000  
topohru0106            0.02298      90.00000      90.00000     121.00000       0.00000  
topohru0107            0.02043      90.00000      90.00000     121.00000       0.00000  
topohru0108            0.05770      30.00000      30.00000     121.00000       0.00000  
topohru0109            0.01948      90.00000      90.00000     121.00000       0.00000  
topohru0110            0.05556      30.00000      30.00000     121.00000       0.00000  
topohru0111            0.02814      90.00000      90.00000     121.00000       0.00000  
topohru0112            0.02435      90.00000      90.00000     121.00000       0.00000  
topohru0113            0.06368      30.00000      30.00000     121.00000       0.00000  
topohru0114            0.02529      90.00000      90.00000     121.00000       0.00000  
topohru0115            0.02218      90.00000      90.00000     121.00000       0.00000  
topohru0116            0.02082      90.00000      90.00000     121.00000       0.00000  
topohru0117            0.01903      90.00000      90.00000     121.00000       0.00000  
topohru0118            0.02952      90.00000      90.00000     121.00000       0.00000  
topohru0119            0.14302      10.00000      10.00000     121.00000       0.00000  
topohru0120            0.06490      30.00000      30.00000     121.00000       0.00000  
topohru0121            0.17251      10.00000      10.00000     121.00000       0.00000  
topohru0122            0.40324      10.00000      10.00000     121.00000       0.00000  
topohru0123            0.15091      10.00000      10.00000     121.00000       0.00000  
topohru0124            0.06571      30.00000      30.00000     121.00000       0.00000  
topohru0125            0.02837      90.00000      90.00000     121.00000       0.00000  
topohru0126            0.20938      10.00000      10.00000     121.00000       0.00000  
topohru0127            0.43689      10.00000      10.00000     121.00000       0.00000  
topohru0128            0.11367      10.00000      10.00000     121.00000       0.00000  
topohru0129            0.06301      30.00000      30.00000     121.00000       0.00000  
topohru0130            0.02418      90.00000      90.00000     121.00000       0.00000  
topohru0131            0.02622      90.00000      90.00000     121.00000       0.00000  
topohru0132            0.06080      30.00000      30.00000     121.00000       0.00000  
topohru0133            0.11406      10.00000      10.00000     121.00000       0.00000  
topohru0134            0.06310      30.00000      30.00000     121.00000       0.00000  
topohru0135            0.03139      60.00000      60.00000     121.00000       0.00000  
topohru0136            0.16700      10.00000      10.00000     121.00000       0.00000  
topohru0137            0.40951      10.00000      10.00000     121.00000       0.00000  
topohru0138            0.03674      60.00000      60.00000     121.00000       0.00000  
topohru0139            0.06471      30.00000      30.00000     121.00000       0.00000  
topohru0140            0.02219      90.00000      90.00000     121.00000       0.00000  
topohru0141            0.02429      90.00000      90.00000     121.00000       0.00000  
topohru0142            0.06424      30.00000      30.00000     121.00000       0.00000  
topohru0143            0.01965      90.00000      90.00000     121.00000       0.00000  
topohru0144            0.06305      30.00000      30.00000     121.00000       0.00000  
topohru0145            0.02050      90.00000      90.00000     121.00000       0.00000  
topohru0146            0.06804      30.00000      30.00000     121.00000       0.00000  
topohru0147            0.02457      90.00000      90.00000     121.00000       0.00000  
topohru0148            0.20985      10.00000      10.00000     121.00000       0.00000  
topohru0149            0.44800      10.00000      10.00000     121.00000       0.00000  
topohru0150            0.02362      90.00000      90.00000     121.00000       0.00000  
topohru0151            0.02100      90.00000      90.00000     121.00000       0.00000  
topohru0152            0.06240      30.00000      30.00000     121.00000       0.00000  
topohru0153            0.02312      90.00000      90.00000     121.00000       0.00000  
topohru0154            0.02860      90.00000      90.00000     121.00000       0.00000  
topohru0155            0.06348      30.00000      30.00000     121.00000       0.00000  
topohru0156            0.16184      10.00000      10.00000     121.00000       0.00000  
topohru0157            0.03129      60.00000      60.00000     121.00000       0.00000  
topohru0158            0.06176      30.00000      30.00000     121.00000       0.00000  
topohru0159            0.02715      90.00000      90.00000     121.00000       0.00000  
topohru0160            0.06006      30.00000      30.00000     121.00000       0.00000  
topohru0161            0.02610      90.00000      90.00000     121.00000       0.00000  
topohru0162            0.06201      30.00000      30.00000     121.00000       0.00000  
topohru0163            0.01893      90.00000      90.00000     121.00000       0.00000  
topohru0164            0.02631      90.00000      90.00000     121.00000       0.00000  
topohru0165            0.06268      30.00000      30.00000     121.00000       0.00000  
topohru0166            0.02814      90.00000      90.00000     121.00000       0.00000  
topohru0167            0.06087      30.00000      30.00000     121.00000       0.00000  
topohru0168            0.02372      90.00000      90.00000     121.00000       0.00000  
topohru0169            0.01866      90.00000      90.00000     121.00000       0.00000  
topohru0170            0.02170      90.00000      90.00000     121.00000       0.00000  
topohru0171            0.39765      10.00000      10.00000     121.00000       0.00000  
topohru0172            0.20455      10.00000      10.00000     121.00000       0.00000  
topohru0173            0.45957      10.00000      10.00000     121.00000       0.00000  
topohru0174            0.19871      10.00000      10.00000     121.00000       0.00000  
topohru0175            0.03377      60.00000      60.00000     121.00000       0.00000  
topohru0176            0.06077      30.00000      30.00000     121.00000       0.00000  
topohru0177            0.02864      90.00000      90.00000     121.00000       0.00000  
topohru0178            0.16242      10.00000      10.00000     121.00000       0.00000  
topohru0179            0.02862      90.00000      90.00000     121.00000       0.00000  
topohru0180            0.06553      30.00000      30.00000     121.00000       0.00000  
topohru0181            0.02050      90.00000      90.00000     121.00000       0.00000  
topohru0182            0.02411      90.00000      90.00000     121.00000       0.00000  
topohru0183            0.05556      30.00000      30.00000     121.00000       0.00000  
topohru0184            0.02220      90.00000      90.00000     121.00000       0.00000  
topohru0185            0.01528      90.00000      90.00000     121.00000       0.00000  
topohru0186            0.02558      90.00000      90.00000     121.00000       0.00000  
topohru0187            0.05944      30.00000      30.00000     121.00000       0.00000  
topohru0188            0.13412      10.00000      10.00000     121.00000       0.00000  
topohru0189            0.02374      90.00000      90.00000     121.00000       0.00000  
topohru0190            0.10872      10.00000      10.00000     121.00000       0.00000  
topohru0191            0.06573      30.00000      30.00000     121.00000       0.00000  
topohru0192            0.15972      10.00000      10.00000     121.00000       0.00000  
topohru0193            0.03416      60.00000      60.00000     121.00000       0.00000  
topohru0194            0.06517      30.00000      30.00000     121.00000       0.00000  
topohru0195            0.02294      90.00000      90.00000     121.00000       0.00000  
topohru0196            0.06314      30.00000      30.00000     121.00000       0.00000  
topohru0197            0.02248      90.00000      90.00000     121.00000       0.00000  
topohru0198            0.06596      30.00000      30.00000     121.00000       0.00000  
topohru0199            0.02060      90.00000      90.00000     121.00000       0.00000  
topohru0200            0.06044      30.00000      30.00000     121.00000       0.00000  
topohru0201            0.02413      90.00000      90.00000     121.00000       0.00000  
topohru0202            0.11118      10.00000      10.00000     121.00000       0.00000  
topohru0203            0.06631      30.00000      30.00000     121.00000       0.00000  
topohru0204            0.39023      10.00000      10.00000     121.00000       0.00000  
topohru0205            0.19169      10.00000      10.00000     121.00000       0.00000  
topohru0206            0.03089      60.00000      60.00000     121.00000       0.00000  
topohru0207            0.38990      10.00000      10.00000     121.00000       0.00000  
topohru0208            0.17737      10.00000      10.00000     121.00000       0.00000  
topohru0209            0.02710      90.00000      90.00000     121.00000       0.00000  
topohru0210            0.06461      30.00000      30.00000     121.00000       0.00000  
topohru0211            0.12553      10.00000      10.00000     121.00000       0.00000  
topohru0212            0.06627      30.00000      30.00000     121.00000       0.00000  
topohru0213            0.03215      60.00000      60.00000     121.00000       0.00000  
topohru0214            0.12713      10.00000      10.00000     121.00000       0.00000  
topohru0215            0.02747      90.00000      90.00000     121.00000       0.00000  
topohru0216            0.06582      30.00000      30.00000     121.00000       0.00000  
topohru0217            0.02916      90.00000      90.00000     121.00000       0.00000  
topohru0218            0.06333      30.00000      30.00000     121.00000       0.00000  
topohru0219            0.14646      10.00000      10.00000     121.00000       0.00000  
topohru0220            0.02811      90.00000      90.00000     121.00000       0.00000  
topohru0221            0.06753      30.00000      30.00000     121.00000       0.00000  
topohru0222            0.16254      10.00000      10.00000     121.00000       0.00000  
topohru0223            0.02864      90.00000      90.00000     121.00000       0.00000  
topohru0224            0.06566      30.00000      30.00000     121.00000       0.00000  
topohru0225            0.14228      10.00000      10.00000     121.00000       0.00000  
topohru0226            0.12143      10.00000      10.00000     121.00000       0.00000  
topohru0227            0.02737      90.00000      90.00000     121.00000       0.00000  
topohru0228            0.06375      30.00000      30.00000     121.00000       0.00000  
topohru0229            0.06438      30.00000      30.00000     121.00000       0.00000  
topohru0230            0.02664      90.00000      90.00000     121.00000       0.00000  
topohru0231            0.02657      90.00000      90.00000     121.00000       0.00000  
topohru0232            0.06650      30.00000      30.00000     121.00000       0.00000  
topohru0233            0.10321      10.00000      10.00000     121.00000       0.00000  
topohru0234            0.02552      90.00000      90.00000     121.00000       0.00000  
topohru0235            0.06410      30.00000      30.00000     121.00000       0.00000  
topohru0236            0.11015      10.00000      10.00000     121.00000       0.00000  
topohru0237            0.02580      90.00000      90.00000     121.00000       0.00000  
topohru0238            0.06704      30.00000      30.00000     121.00000       0.00000  
topohru0239            0.11004      10.00000      10.00000     121.00000       0.00000  
topohru0240            0.02647      90.00000      90.00000     121.00000       0.00000  
topohru0241            0.06430      30.00000      30.00000     121.00000       0.00000  
topohru0242            0.12526      10.00000      10.00000     121.00000       0.00000  
topohru0243            0.06412      30.00000      30.00000     121.00000       0.00000  
topohru0244            0.02843      90.00000      90.00000     121.00000       0.00000  
topohru0245            0.10756      10.00000      10.00000     121.00000       0.00000  
topohru0246            0.02579      90.00000      90.00000     121.00000       0.00000  
topohru0247            0.06744      30.00000      30.00000     121.00000       0.00000  
topohru0248            0.02905      90.00000      90.00000     121.00000       0.00000  
topohru0249            0.06611      30.00000      30.00000     121.00000       0.00000  
topohru0250            0.10876      10.00000      10.00000     121.00000       0.00000  
topohru0251            0.02749      90.00000      90.00000     121.00000       0.00000  
topohru0252            0.10925      10.00000      10.00000     121.00000       0.00000  
topohru0253            0.06427      30.00000      30.00000     121.00000       0.00000  
topohru0254            0.02961      90.00000      90.00000     121.00000       0.00000  
topohru0255            0.06416      30.00000      30.00000     121.00000       0.00000  
topohru0256            0.10173      10.00000      10.00000     121.00000       0.00000  
topohru0257            0.06573      30.00000      30.00000     121.00000       0.00000  
topohru0258            0.02805      90.00000      90.00000     121.00000       0.00000  
topohru0259            0.10522      10.00000      10.00000     121.00000       0.00000  
topohru0260            0.02676      90.00000      90.00000     121.00000       0.00000  
topohru0261            0.09400      10.00000      10.00000     121.00000       0.00000  
topohru0262            0.06481      30.00000      30.00000     121.00000       0.00000  
topohru0263            0.06913      30.00000      30.00000     121.00000       0.00000  
topohru0264            0.02369      90.00000      90.00000     121.00000       0.00000  
topohru0265            0.09650      10.00000      10.00000     121.00000       0.00000  
topohru0266            0.02786      90.00000      90.00000     121.00000       0.00000  
topohru0267            0.06587      30.00000      30.00000     121.00000       0.00000  
topohru0268            0.16995      10.00000      10.00000     121.00000       0.00000  
topohru0269            0.02883      90.00000      90.00000     121.00000       0.00000  
topohru0270            0.06539      30.00000      30.00000     121.00000       0.00000  
topohru0271            0.11976      10.00000      10.00000     121.00000       0.00000  
topohru0272            0.13392      10.00000      10.00000     121.00000       0.00000  
topohru0273            0.06736      30.00000      30.00000     121.00000       0.00000  
topohru0274            0.02816      90.00000      90.00000     121.00000       0.00000  
topohru0275            0.06584      30.00000      30.00000     121.00000       0.00000  
topohru0276            0.02756      90.00000      90.00000     121.00000       0.00000  
topohru0277            0.12081      10.00000      10.00000     121.00000       0.00000  
topohru0278            0.47181      10.00000      10.00000     121.00000       0.00000  
topohru0279            0.15671      10.00000      10.00000     121.00000       0.00000  
topohru0280            0.02800      90.00000      90.00000     121.00000       0.00000  
topohru0281            0.06183      30.00000      30.00000     121.00000       0.00000  
topohru0282            0.50942      10.00000      10.00000     121.00000       0.00000  
topohru0283            0.06530      30.00000      30.00000     121.00000       0.00000  
topohru0284            0.02705      90.00000      90.00000     121.00000       0.00000  
topohru0285            0.06314      30.00000      30.00000     121.00000       0.00000  
topohru0286            0.09888      10.00000      10.00000     121.00000       0.00000  
topohru0287            0.02665      90.00000      90.00000     121.00000       0.00000  
topohru0288            0.06421      30.00000      30.00000     121.00000       0.00000  
topohru0289            0.02797      90.00000      90.00000     121.00000       0.00000  
topohru0290            0.10670      10.00000      10.00000     121.00000       0.00000  
topohru0291            0.06412      30.00000      30.00000     121.00000       0.00000  
topohru0292            0.02609      90.00000      90.00000     121.00000       0.00000  
topohru0293            0.10382      10.00000      10.00000     121.00000       0.00000  
topohru0294            0.07132      30.00000      30.00000     121.00000       0.00000  
topohru0295            0.02491      90.00000      90.00000     121.00000       0.00000  
topohru0296            0.07060      30.00000      30.00000     121.00000       0.00000  
topohru0297            0.02516      90.00000      90.00000     121.00000       0.00000  
topohru0298            0.10963      10.00000      10.00000     121.00000       0.00000  
topohru0299            0.06654      30.00000      30.00000     121.00000       0.00000  
topohru0300            0.02403      90.00000      90.00000     121.00000       0.00000  
topohru0301            0.06209      30.00000      30.00000     121.00000       0.00000  
topohru0302            0.02688      90.00000      90.00000     121.00000       0.00000  
topohru0303            0.06126      30.00000      30.00000     121.00000       0.00000  
topohru0304            0.02682      90.00000      90.00000     121.00000       0.00000  
topohru0305            0.06360      30.00000      30.00000     121.00000       0.00000  
topohru0306            0.10463      10.00000      10.00000     121.00000       0.00000  
topohru0307            0.02257      90.00000      90.00000     121.00000       0.00000  
topohru0308            0.06489      30.00000      30.00000     121.00000       0.00000  
topohru0309            0.02214      90.00000      90.00000     121.00000       0.00000  
topohru0310            0.10766      10.00000      10.00000     121.00000       0.00000  
topohru0311            0.05913      30.00000      30.00000     121.00000       0.00000  
topohru0312            0.02539      90.00000      90.00000     121.00000       0.00000  
topohru0313            0.06410      30.00000      30.00000     121.00000       0.00000  
topohru0314            0.02954      90.00000      90.00000     121.00000       0.00000  
topohru0315            0.06599      30.00000      30.00000     121.00000       0.00000  
topohru0316            0.14219      10.00000      10.00000     121.00000       0.00000  
topohru0317            0.06651      30.00000      30.00000     121.00000       0.00000  
topohru0318            0.02435      90.00000      90.00000     121.00000       0.00000  
topohru0319            0.10969      10.00000      10.00000     121.00000       0.00000  
topohru0320            0.02098      90.00000      90.00000     121.00000       0.00000  
topohru0321            0.05556      30.00000      30.00000     121.00000       0.00000  
topohru0322            0.03199      60.00000      60.00000     121.00000       0.00000  
topohru0323            0.06126      30.00000      30.00000     121.00000       0.00000  
topohru0324            0.12048      10.00000      10.00000     121.00000       0.00000  
topohru0325            0.06659      30.00000      30.00000     121.00000       0.00000  
topohru0326            0.02403      90.00000      90.00000     121.00000       0.00000  
topohru0327            0.02062      90.00000      90.00000     121.00000       0.00000  
topohru0328            0.05926      30.00000      30.00000     121.00000       0.00000  
topohru0329            0.03089      60.00000      60.00000     121.00000       0.00000  
topohru0330            0.05920      30.00000      30.00000     121.00000       0.00000  
topohru0331            0.06761      30.00000      30.00000     121.00000       0.00000  
topohru0332            0.02884      90.00000      90.00000     121.00000       0.00000  
topohru0333            0.11381      10.00000      10.00000     121.00000       0.00000  
topohru0334            0.02957      90.00000      90.00000     121.00000       0.00000  
topohru0335            0.06371      30.00000      30.00000     121.00000       0.00000  