bmpuser.str: written by SWAT+ editor v2.1.0 on 2022-07-22 17:46 for SWAT+ rev.60.5.4
name                  flag       sed_eff      ptlp_eff      solp_eff      ptln_eff      soln_eff      bact_eff  description
bmpusr1                  1       0.20000       0.20000       0.20000       0.20000       0.20000       0.20000  
