channel-lte.cha: written by SWAT+ editor v2.1.0 on 2022-07-22 17:46 for SWAT+ rev.60.5.4
      id  name                       cha_ini           cha_hyd           cha_sed           cha_nut  
       1  cha1                      initcha1           hydcha1              null           nutcha1  
