field.fld: written by SWAT+ editor v2.1.0 on 2022-07-22 17:46 for SWAT+ rev.60.5.4
name                       len            wd           ang  
fld10                500.00000     100.00000      30.00000  
