hmd.cli: Relative humidity file names - file written by SWAT+ editor 2022-07-22 17:43:31.577083
filename
lrew_hmd.hmd
