hru.con: written by SWAT+ editor v2.1.0 on 2022-07-22 17:46 for SWAT+ rev.60.5.4
      id  name                gis_id          area           lat           lon          elev       hru               wst       cst      ovfl      rule   out_tot  
       1  hru01                    1     197.44257      31.72340     -83.74461     132.81511         1     s31494n83526w         0         0         0         0  
       2  hru02                    2     146.81631      31.72589     -83.75068     134.30154         2     s31494n83526w         0         0         0         0  
       3  hru03                    3      11.27131      31.70140     -83.71588     115.07510         3     s31494n83526w         0         0         0         0  
       4  hru04                    4       9.14990      31.70062     -83.71378     112.66042         4     s31494n83526w         0         0         0         0  
       5  hru05                    5     209.36523      31.72016     -83.74354     128.76897         5     s31494n83526w         0         0         0         0  
       6  hru06                    6      46.80501      31.71462     -83.74296     126.55124         6     s31494n83526w         0         0         0         0  
       7  hru07                    7      53.84160      31.72316     -83.74572     126.43151         7     s31494n83526w         0         0         0         0  
       8  hru08                    8      43.10709      31.70671     -83.73281     120.78505         8     s31494n83526w         0         0         0         0  
       9  hru09                    9      49.16110      31.70768     -83.73031     121.13862         9     s31494n83526w         0         0         0         0  
      10  hru10                   10      15.44654      31.70818     -83.74200     128.78638        10     s31494n83526w         0         0         0         0  
      11  hru11                   11     171.84274      31.71779     -83.74205     130.42078        11     s31494n83526w         0         0         0         0  
      12  hru12                   12      14.78250      31.69835     -83.72818     121.01866        12     s31494n83526w         0         0         0         0  
      13  hru13                   13      13.86306      31.69545     -83.72498     123.39794        13     s31494n83526w         0         0         0         0  
      14  hru14                   14      41.81504      31.71690     -83.73970     128.48426        14     s31494n83526w         0         0         0         0  
      15  hru15                   15      14.87440      31.72869     -83.75087     132.45059        15     s31494n83526w         0         0         0         0  
      16  hru16                   16       5.80277      31.70189     -83.72881     120.29490        16     s31494n83526w         0         0         0         0  
      17  hru17                   17       6.38414      31.69964     -83.73446     122.30241        17     s31494n83526w         0         0         0         0  
      18  hru18                   18       7.51398      31.70255     -83.75306     135.95328        18     s31494n83526w         0         0         0         0  
      19  hru19                   19     182.13764      31.71646     -83.74077     122.36036        19     s31494n83526w         0         0         0         0  
      20  hru20                   20     104.73184      31.71900     -83.74347     124.96274        20     s31494n83526w         0         0         0         0  
      21  hru21                   21      31.37956      31.70133     -83.72354     114.33827        21     s31494n83526w         0         0         0         0  
      22  hru22                   22      27.57467      31.71125     -83.73874     122.65425        22     s31494n83526w         0         0         0         0  
      23  hru23                   23     117.25989      31.71176     -83.73498     115.11827        23     s31494n83526w         0         0         0         0  
      24  hru24                   24      19.25733      31.72346     -83.74015     132.54016        24     s31494n83526w         0         0         0         0  
      25  hru25                   25       2.74482      31.72922     -83.74343     129.43254        25     s31494n83526w         0         0         0         0  
      26  hru26                   26       1.92791      31.71213     -83.73917     122.75141        26     s31494n83526w         0         0         0         0  
      27  hru27                   27       1.50312      31.70684     -83.74276     127.94203        27     s31494n83526w         0         0         0         0  
      28  hru28                   28      18.37131      31.73568     -83.74769     134.52124        28     s31494n83526w         0         0         0         0  
      29  hru29                   29       7.21139      31.71540     -83.74339     120.14262        29     s31494n83526w         0         0         0         0  
      30  hru30                   30       1.93880      31.71395     -83.74155     117.48171        30     s31494n83526w         0         0         0         0  
      31  hru31                   31       8.82806      31.72253     -83.75035     126.02094        31     s31494n83526w         0         0         0         0  
      32  hru32                   32      14.38364      31.72358     -83.75310     125.50113        32     s31494n83526w         0         0         0         0  
      33  hru33                   33      51.82677      31.72513     -83.75076     124.88567        33     s31494n83526w         0         0         0         0  
      34  hru34                   34     237.72173      31.71646     -83.74541     128.98496        34     s31494n83526w         0         0         0         0  
      35  hru35                   35      19.11239      31.71487     -83.74876     125.37535        35     s31494n83526w         0         0         0         0  
      36  hru36                   36      38.86721      31.70888     -83.73569     125.21350        36     s31494n83526w         0         0         0         0  
      37  hru37                   37      29.91598      31.71666     -83.74638     126.27273        37     s31494n83526w         0         0         0         0  
      38  hru38                   38     165.83906      31.72187     -83.74560     132.70207        38     s31494n83526w         0         0         0         0  
      39  hru39                   39      13.08098      31.71618     -83.74347     123.78806        39     s31494n83526w         0         0         0         0  
      40  hru40                   40      27.25843      31.72278     -83.75290     130.80230        40     s31494n83526w         0         0         0         0  
      41  hru41                   41       2.89054      31.73105     -83.75992     130.71705        41     s31494n83526w         0         0         0         0  
      42  hru42                   42       2.08388      31.70169     -83.71874     114.00538        42     s31494n83526w         0         0         0         0  
      43  hru43                   43       7.02365      31.70542     -83.72563     127.99241        43     s31494n83526w         0         0         0         0  
      44  hru44                   44       1.62002      31.70825     -83.72587     123.50658        44     s31494n83526w         0         0         0         0  
      45  hru45                   45       0.60751      31.69738     -83.72415     117.03509        45     s31494n83526w         0         0         0         0  
      46  hru46                   46       3.71279      31.72516     -83.76709     128.50425        46     s31494n83526w         0         0         0         0  
      47  hru47                   47       0.82039      31.72478     -83.76807     128.37179        47     s31494n83526w         0         0         0         0  
      48  hru48                   48       0.90453      31.72473     -83.76768     127.67442        48     s31494n83526w         0         0         0         0  
      49  hru49                   49       1.00885      31.70403     -83.72641     119.05208        49     s31494n83526w         0         0         0         0  
