pcp.cli: Precipitation file names - file written by SWAT+ editor 2022-07-22 17:43:31.639364
filename
pcp144.pcp
