rout_unit.def: written by SWAT+ editor v2.1.0 on 2022-07-22 17:46 for SWAT+ rev.60.5.4
      id              name  elem_tot  elements  
       1             rtu10         2         1       -49  
