rout_unit.ele: written by SWAT+ editor v2.1.0 on 2022-07-22 17:46 for SWAT+ rev.60.5.4
      id  name                   obj_typ    obj_id          frac               dlr  
       1  hru01                      hru         1     8.9631E-2                 0  
       2  hru02                      hru         2     6.6649E-2                 0  
       3  hru03                      hru         3     5.1167E-3                 0  
       4  hru04                      hru         4     4.1537E-3                 0  
       5  hru05                      hru         5     9.5044E-2                 0  
       6  hru06                      hru         6     2.1248E-2                 0  
       7  hru07                      hru         7     2.4442E-2                 0  
       8  hru08                      hru         8     1.9569E-2                 0  
       9  hru09                      hru         9     2.2317E-2                 0  
      10  hru10                      hru        10     7.0121E-3                 0  
      11  hru11                      hru        11     7.8010E-2                 0  
      12  hru12                      hru        12     6.7107E-3                 0  
      13  hru13                      hru        13     6.2933E-3                 0  
      14  hru14                      hru        14     1.8982E-2                 0  
      15  hru15                      hru        15     6.7524E-3                 0  
      16  hru16                      hru        16     2.6342E-3                 0  
      17  hru17                      hru        17     2.8982E-3                 0  
      18  hru18                      hru        18     3.4111E-3                 0  
      19  hru19                      hru        19     8.2683E-2                 0  
      20  hru20                      hru        20     4.7544E-2                 0  
      21  hru21                      hru        21     1.4245E-2                 0  
      22  hru22                      hru        22     1.2518E-2                 0  
      23  hru23                      hru        23     5.3231E-2                 0  
      24  hru24                      hru        24     8.7421E-3                 0  
      25  hru25                      hru        25     1.2460E-3                 0  
      26  hru26                      hru        26     8.7520E-4                 0  
      27  hru27                      hru        27     6.8236E-4                 0  
      28  hru28                      hru        28     8.3399E-3                 0  
      29  hru29                      hru        29     3.2737E-3                 0  
      30  hru30                      hru        30     8.8014E-4                 0  
      31  hru31                      hru        31     4.0076E-3                 0  
      32  hru32                      hru        32     6.5296E-3                 0  
      33  hru33                      hru        33     2.3527E-2                 0  
      34  hru34                      hru        34     1.0792E-1                 0  
      35  hru35                      hru        35     8.6763E-3                 0  
      36  hru36                      hru        36     1.7644E-2                 0  
      37  hru37                      hru        37     1.3581E-2                 0  
      38  hru38                      hru        38     7.5285E-2                 0  
      39  hru39                      hru        39     5.9383E-3                 0  
      40  hru40                      hru        40     1.2374E-2                 0  
      41  hru41                      hru        41     1.3122E-3                 0  
      42  hru42                      hru        42     9.4600E-4                 0  
      43  hru43                      hru        43     3.1885E-3                 0  
      44  hru44                      hru        44     7.3543E-4                 0  
      45  hru45                      hru        45     2.7579E-4                 0  
      46  hru46                      hru        46     1.6855E-3                 0  
      47  hru47                      hru        47     3.7243E-4                 0  
      48  hru48                      hru        48     4.1062E-4                 0  
      49  hru49                      hru        49     4.5798E-4                 0  
