slr.cli: Solar radiation file names - file written by SWAT+ editor 2022-07-22 17:43:31.701212
filename
lrew_slr.slr
