sweep.ops: written by SWAT+ editor v2.1.0 on 2022-07-22 17:46 for SWAT+ rev.60.5.4
name                   swp_eff     frac_curb  description
high_eff               0.80000       0.90000  
