time.sim: written by SWAT+ editor v2.1.0 on 2022-07-22 17:46 for SWAT+ rev.60.5.4
day_start  yrc_start   day_end   yrc_end      step  
       0       2003          0       2013          0 
