weather-sta.cli: written by SWAT+ editor v2.1.0 on 2022-07-22 17:46 for SWAT+ rev.60.5.4
name                           wgn                        pcp                        tmp                        slr                        hmd                        wnd           wnd_dir          atmo_dep  
s31494n83526w             314n834w                 pcp144.pcp               lrew_tmp.tmp               lrew_slr.slr               lrew_hmd.hmd               lrew_wnd.wnd              null              null  
