wnd.cli: Wind speed file names - file written by SWAT+ editor 2022-07-22 17:43:31.854744
filename
lrew_wnd.wnd
