chandeg.con: written by SWAT+ editor v2.1.0 on 2022-07-22 17:46 for SWAT+ rev.60.5.4
      id  name                gis_id          area           lat           lon          elev      lcha               wst       cst      ovfl      rule   out_tot  
       1  cha1                     1    2202.78000      31.70838     -83.72473             0         1     s31494n83526w         0         0         0         0  
