initial.cha: written by SWAT+ editor v2.1.0 on 2022-07-22 17:46 for SWAT+ rev.60.5.4
name                       org_min              pest              path              hmet              salt  description       
initcha1                   no_init              null              null              null              null  null              
