management.sch: written by SWAT+ editor v2.1.0 on 2022-06-15 15:20 for SWAT+ rev.60.5.4
name                       numb_ops  numb_auto            op_typ       mon       day        hu_sch          op_data1          op_data2      op_data3  
agrl_mgt                          0          0  
lrew_ag1                         32          0  
                                                            till         4         1       0.00000          riprsubs              null       0.00000  
                                                            till         4        15       0.00000          riprsubs              null       0.00000  
                                                            till         5         1       0.00000           fldcult              null       0.00000  
                                                            plnt         5         2       0.00000              pnut              null       0.00000  
                                                            harv        10         1       0.00000              pnut           peanuts       0.00000  
                                                            kill        10         1       0.00000              pnut              null       0.00000  
                                                            till         3         1       0.00000          riprsubs              null       0.00000  
                                                            till         3        15       0.00000          riprsubs              null       0.00000  
                                                            till         4         1       0.00000           fldcult              null       0.00000  
                                                            plnt         4         2       0.00000              corn              null       0.00000  
                                                            fert         4         3       0.00000            elem_n         broadcast     150.00000  
                                                            fert         4         3       0.00000            elem_p         broadcast      30.00000  
                                                            harv         9         1       0.00000              corn             grain       0.00000  
                                                            kill         9         1       0.00000              corn              null       0.00000  
                                                            till         3        15       0.00000          riprsubs              null       0.00000  
                                                            till         4         1       0.00000          riprsubs              null       0.00000  
                                                            till         4        15       0.00000          riprsubs              null       0.00000  
                                                            till         5         1       0.00000           fldcult              null       0.00000  
                                                            plnt         5         2       0.00000              cots              null       0.00000  
                                                            fert         5         3       0.00000            elem_n            inject     150.00000  
                                                            fert         5         3       0.00000            elem_p         broadcast      30.00000  
                                                            harv        11         1       0.00000              cots      cotton_strip       0.00000  
                                                            kill        11         1       0.00000              cots              null       0.00000  
                                                            till         3        15       0.00000          riprsubs              null       0.00000  
                                                            till         4         1       0.00000          riprsubs              null       0.00000  
                                                            till         4        15       0.00000          riprsubs              null       0.00000  
                                                            till         5         1       0.00000           fldcult              null       0.00000  
                                                            plnt         5         2       0.00000              cots              null       0.00000  
                                                            fert         5         3       0.00000            elem_n            inject     150.00000  
                                                            fert         5         3       0.00000            elem_p         broadcast      30.00000  
                                                            harv        11         1       0.00000              cots      cotton_strip       0.00000  
                                                            kill        11         1       0.00000              cots              null       0.00000  
lrew_ag2                         32          0  
                                                            till         3         1       0.00000          riprsubs              null       0.00000  
                                                            till         3        15       0.00000          riprsubs              null       0.00000  
                                                            till         4         1       0.00000           fldcult              null       0.00000  
                                                            plnt         4         2       0.00000              corn              null       0.00000  
                                                            fert         4         3       0.00000            elem_n         broadcast     150.00000  
                                                            fert         4         3       0.00000            elem_p         broadcast      30.00000  
                                                            harv         9         1       0.00000              corn             grain       0.00000  
                                                            kill         9         1       0.00000              corn              null       0.00000  
                                                            till         3        15       0.00000          riprsubs              null       0.00000  
                                                            till         4         1       0.00000          riprsubs              null       0.00000  
                                                            till         4        15       0.00000          riprsubs              null       0.00000  
                                                            till         5         1       0.00000           fldcult              null       0.00000  
                                                            plnt         5         2       0.00000              cots              null       0.00000  
                                                            fert         5         3       0.00000            elem_n         broadcast     150.00000  
                                                            fert         5         3       0.00000            elem_p         broadcast      30.00000  
                                                            harv        11         1       0.00000              cots      cotton_strip       0.00000  
                                                            kill        11         1       0.00000              cots              null       0.00000  
                                                            till         3        15       0.00000          riprsubs              null       0.00000  
                                                            till         4         1       0.00000          riprsubs              null       0.00000  
                                                            till         4        15       0.00000          riprsubs              null       0.00000  
                                                            till         5         1       0.00000           fldcult              null       0.00000  
                                                            plnt         5         2       0.00000              cots              null       0.00000  
                                                            fert         5         3       0.00000            elem_n         broadcast     150.00000  
                                                            fert         5         3       0.00000            elem_p         broadcast      30.00000  
                                                            harv        11         1       0.00000              cots      cotton_strip       0.00000  
                                                            kill        11         1       0.00000              cots              null       0.00000  
                                                            till         4         1       0.00000          riprsubs              null       0.00000  
                                                            till         4        15       0.00000          riprsubs              null       0.00000  
                                                            till         5         1       0.00000           fldcult              null       0.00000  
                                                            plnt         5         2       0.00000              pnut              null       0.00000  
                                                            harv        10         1       0.00000              pnut           peanuts       0.00000  
                                                            kill        10         1       0.00000              pnut              null       0.00000  
lrew_ag3                         32          0  
                                                            till         3        15       0.00000          riprsubs              null       0.00000  
                                                            till         4         1       0.00000          riprsubs              null       0.00000  
                                                            till         4        15       0.00000          riprsubs              null       0.00000  
                                                            till         5         1       0.00000           fldcult              null       0.00000  
                                                            plnt         5         2       0.00000              cots              null       0.00000  
                                                            fert         5         3       0.00000            elem_n         broadcast     150.00000  
                                                            fert         5         3       0.00000            elem_p         broadcast      30.00000  
                                                            harv        11         1       0.00000              cots      cotton_strip       0.00000  
                                                            kill        11         1       0.00000              cots              null       0.00000  
                                                            till         3        15       0.00000          riprsubs              null       0.00000  
                                                            till         4         1       0.00000          riprsubs              null       0.00000  
                                                            till         4        15       0.00000          riprsubs              null       0.00000  
                                                            till         5         1       0.00000           fldcult              null       0.00000  
                                                            plnt         5         2       0.00000              cots              null       0.00000  
                                                            fert         5         3       0.00000            elem_n         broadcast     150.00000  
                                                            fert         5         3       0.00000            elem_p         broadcast      30.00000  
                                                            harv        11         1       0.00000              cots      cotton_strip       0.00000  
                                                            kill        11         1       0.00000              cots              null       0.00000  
                                                            till         4         1       0.00000          riprsubs              null       0.00000  
                                                            till         4        15       0.00000          riprsubs              null       0.00000  
                                                            till         5         1       0.00000           fldcult              null       0.00000  
                                                            plnt         5         2       0.00000              pnut              null       0.00000  
                                                            harv        10         1       0.00000              pnut           peanuts       0.00000  
                                                            kill        10         1       0.00000              pnut              null       0.00000  
                                                            till         3         1       0.00000          riprsubs              null       0.00000  
                                                            till         3        15       0.00000          riprsubs              null       0.00000  
                                                            till         4         1       0.00000           fldcult              null       0.00000  
                                                            plnt         4         2       0.00000              corn              null       0.00000  
                                                            fert         4         3       0.00000            elem_n         broadcast     150.00000  
                                                            fert         4         3       0.00000            elem_p         broadcast      30.00000  
                                                            harv         9         1       0.00000              corn             grain       0.00000  
                                                            kill         9         1       0.00000              corn              null       0.00000  
lrew_ag4                         32          0  
                                                            till         3        15       0.00000          riprsubs              null       0.00000  
                                                            till         4         1       0.00000          riprsubs              null       0.00000  
                                                            till         4        15       0.00000          riprsubs              null       0.00000  
                                                            till         5         1       0.00000           fldcult              null       0.00000  
                                                            plnt         5         2       0.00000              cots              null       0.00000  
                                                            fert         5         3       0.00000            elem_n         broadcast     150.00000  
                                                            fert         5         3       0.00000            elem_p         broadcast      30.00000  
                                                            harv        11         1       0.00000              cots      cotton_strip       0.00000  
                                                            kill        11         1       0.00000              cots              null       0.00000  
                                                            till         4         1       0.00000          riprsubs              null       0.00000  
                                                            till         4        15       0.00000          riprsubs              null       0.00000  
                                                            till         5         1       0.00000           fldcult              null       0.00000  
                                                            plnt         5         2       0.00000              pnut              null       0.00000  
                                                            harv        10         1       0.00000              pnut           peanuts       0.00000  
                                                            kill        10         1       0.00000              pnut              null       0.00000  
                                                            till         3         1       0.00000          riprsubs              null       0.00000  
                                                            till         3        15       0.00000          riprsubs              null       0.00000  
                                                            till         4         1       0.00000           fldcult              null       0.00000  
                                                            plnt         4         2       0.00000              corn              null       0.00000  
                                                            fert         4         3       0.00000            elem_n         broadcast     150.00000  
                                                            fert         4         3       0.00000            elem_p         broadcast      30.00000  
                                                            harv         9         1       0.00000              corn             grain       0.00000  
                                                            kill         9         1       0.00000              corn              null       0.00000  
                                                            till         3        15       0.00000          riprsubs              null       0.00000  
                                                            till         4         1       0.00000          riprsubs              null       0.00000  
                                                            till         4        15       0.00000          riprsubs              null       0.00000  
                                                            till         5         1       0.00000           fldcult              null       0.00000  
                                                            plnt         5         2       0.00000              cots              null       0.00000  
                                                            fert         5         3       0.00000            elem_n         broadcast     150.00000  
                                                            fert         5         3       0.00000            elem_p         broadcast      30.00000  
                                                            harv        11         1       0.00000              cots      cotton_strip       0.00000  
                                                            kill        11         1       0.00000              cots              null       0.00000  
lrew_past                         2          0  
                                                            plnt         3         1       0.00000              past              null       0.00000  
                                                            harv        11         1       0.00000              past       hay_cut_low       0.00000  
forest                            1          0  
                                                            skip         0         0         0              null              null       0.00000  
wetland                           1          0  
                                                            skip         0         0         0              null              null       0.00000  
shrub                             1          0  
                                                            skip         0         0         0              null              null       0.00000  
no_mgt                            0          0  
