object.cnt: written by SWAT+ editor v2.1.0 on 2022-07-22 17:46 for SWAT+ rev.60.5.4
name                   ls_area      tot_area       obj       hru      lhru       rtu       mfl       aqu       cha       res       rec      exco       dlr       can       pmp       out      lcha     aqu2d       hrd       wro  
lilj_1sub           2202.83000    2202.83000        53        49         0         1         0         2         0         0         0         0         0         0         0         0         1         0         0         0  
