plant.ini: written by SWAT+ editor v2.1.0 on 2022-07-22 17:46 for SWAT+ rev.60.5.4
pcom_name          plt_cnt  rot_yr_ini          plt_name     lc_status      lai_init       bm_init      phu_init      plnt_pop      yrs_init      rsd_init  
rota_comm                3         1  
                                        pnut             n       0.00000       0.00000       0.00000       0.00000       0.00000    1000.00000  
                                        corn             n       0.00000       0.00000       0.00000       0.00000       0.00000    1000.00000  
                                        cots             n       0.00000       0.00000       0.00000       0.00000       0.00000    1000.00000  
frse_comm                1         1  
                                        frse             y       2.00000   50000.00000       0.00000       0.00000       1.00000   10000.00000  
frst_comm                1         1  
                                        frst             y       2.00000   50000.00000       0.00000       0.00000       1.00000   10000.00000  
wetf_comm                1         1  
                                        wetf             y       2.00000   50000.00000       0.00000       0.00000       1.00000   10000.00000  
rngb_comm                1         1  
                                        rngb             y       2.00000   50000.00000       0.00000       0.00000       1.00000   10000.00000  
wetw_comm                1         1  
                                        wetw             y       2.00000   50000.00000       0.00000       0.00000       1.00000   10000.00000  
shrb_comm                1         1  
                                        shrb             y       2.00000   50000.00000       0.00000       0.00000       1.00000   10000.00000   
past_comm                1         1  
                                        past             y       0.00000   20000.00000       0.00000       0.00000       1.00000   10000.00000  
wehb_comm                1         1  
                                        wehb             y       2.00000   50000.00000       0.00000       0.00000       1.00000   10000.00000  
frsd_comm                1         1  
                                        frsd             y       2.00000   50000.00000       0.00000       0.00000       1.00000   10000.00000  
