rout_unit.rtu: written by SWAT+ editor v2.1.0 on 2022-07-22 17:46 for SWAT+ rev.60.5.4
      id              name            define               dlr              topo             field  
       1             rtu10             rtu10              null         toportu10             fld10  
