tmp.cli: Temperature file names - file written by SWAT+ editor 2022-07-22 17:43:31.762162
filename
lrew_tmp.tmp
