topography.hyd: written by SWAT+ editor v2.1.0 on 2022-07-22 17:46 for SWAT+ rev.60.5.4
name                       slp       slp_len       lat_len      dist_cha         depos  
topohru01              0.03093      60.00000      60.00000     121.00000       0.00000  
topohru02              0.03269      60.00000      60.00000     121.00000       0.00000  
topohru03              0.02817      90.00000      90.00000     121.00000       0.00000  
topohru04              0.02154      90.00000      90.00000     121.00000       0.00000  
topohru05              0.04317      60.00000      60.00000     121.00000       0.00000  
topohru06              0.03859      60.00000      60.00000     121.00000       0.00000  
topohru07              0.03214      60.00000      60.00000     121.00000       0.00000  
topohru08              0.04601      60.00000      60.00000     121.00000       0.00000  
topohru09              0.05816      30.00000      30.00000     121.00000       0.00000  
topohru10              0.03628      60.00000      60.00000     121.00000       0.00000  
topohru11              0.03482      60.00000      60.00000     121.00000       0.00000  
topohru12              0.06182      30.00000      30.00000     121.00000       0.00000  
topohru13              0.04655      60.00000      60.00000     121.00000       0.00000  
topohru14              0.03831      60.00000      60.00000     121.00000       0.00000  
topohru15              0.03103      60.00000      60.00000     121.00000       0.00000  
topohru16              0.06094      30.00000      30.00000     121.00000       0.00000  
topohru17              0.06243      30.00000      30.00000     121.00000       0.00000  
topohru18              0.04405      60.00000      60.00000     121.00000       0.00000  
topohru19              0.03040      60.00000      60.00000     121.00000       0.00000  
topohru20              0.04062      60.00000      60.00000     121.00000       0.00000  
topohru21              0.04313      60.00000      60.00000     121.00000       0.00000  
topohru22              0.03940      60.00000      60.00000     121.00000       0.00000  
topohru23              0.01859      90.00000      90.00000     121.00000       0.00000  
topohru24              0.03436      60.00000      60.00000     121.00000       0.00000  
topohru25              0.02884      90.00000      90.00000     121.00000       0.00000  
topohru26              0.03921      60.00000      60.00000     121.00000       0.00000  
topohru27              0.02833      90.00000      90.00000     121.00000       0.00000  
topohru28              0.03310      60.00000      60.00000     121.00000       0.00000  
topohru29              0.05821      30.00000      30.00000     121.00000       0.00000  
topohru30              0.05435      30.00000      30.00000     121.00000       0.00000  
topohru31              0.04407      60.00000      60.00000     121.00000       0.00000  
topohru32              0.02868      90.00000      90.00000     121.00000       0.00000  
topohru33              0.02563      90.00000      90.00000     121.00000       0.00000  
topohru34              0.04147      60.00000      60.00000     121.00000       0.00000  
topohru35              0.03760      60.00000      60.00000     121.00000       0.00000  
topohru36              0.04159      60.00000      60.00000     121.00000       0.00000  
topohru37              0.03608      60.00000      60.00000     121.00000       0.00000  
topohru38              0.03083      60.00000      60.00000     121.00000       0.00000  
topohru39              0.02671      90.00000      90.00000     121.00000       0.00000  
topohru40              0.03143      60.00000      60.00000     121.00000       0.00000  
topohru41              0.03748      60.00000      60.00000     121.00000       0.00000  
topohru42              0.02690      90.00000      90.00000     121.00000       0.00000  
topohru43              0.04110      60.00000      60.00000     121.00000       0.00000  
topohru44              0.04814      60.00000      60.00000     121.00000       0.00000  
topohru45              0.07767      30.00000      30.00000     121.00000       0.00000  
topohru46              0.03984      60.00000      60.00000     121.00000       0.00000  
topohru47              0.03016      60.00000      60.00000     121.00000       0.00000  
topohru48              0.02680      90.00000      90.00000     121.00000       0.00000  
topohru49              0.04568      60.00000      60.00000     121.00000       0.00000  
toportu10              0.03577     121.00000     121.00000     121.00000       0.00000  
