weather-wgn.cli: written by SWAT+ editor v2.1.0 on 2022-07-22 17:46 for SWAT+ rev.60.5.4
314n834w                       31.37900     -83.43750      86.00000        32  
 tmp_max_ave   tmp_min_ave    tmp_max_sd    tmp_min_sd       pcp_ave        pcp_sd      pcp_skew       wet_dry       wet_wet      pcp_days       pcp_hhr       slr_ave       dew_ave       wnd_ave  
    14.43170       4.70904       5.17366       5.79490     105.94200       8.80181       4.46084       0.30993       0.39216      12.75000      28.31580      10.18640       0.74810       3.82532  
    16.42740       6.33238       5.12959       5.39342     103.84100       9.52857       4.23339       0.30686       0.35143      10.93750      33.06520      13.08960       0.74575       3.82808  
    20.34790       9.56649       4.79373       5.00856     115.00200       9.75966       4.70620       0.28548       0.35233      12.06250      33.16170      17.70730       0.73784       3.62991  
    24.52180      12.78970       4.40689       4.15430      88.85800       8.38148       5.46273       0.23748       0.38710      10.65620      31.16610      22.71540       0.68314       3.23519  
    29.55240      17.34870       3.60061       3.14091     106.75200       7.38283       4.38198       0.25709       0.40749      13.34380      25.78100      24.98630       0.64969       2.81105  
    32.39230      20.99350       3.84841       2.17202     172.32300       9.15799       3.33579       0.33146       0.44702      18.87500      28.31460      23.46410       0.69097       2.43771  
    33.64890      22.40200       3.65127       1.53650     199.88400       8.45458       3.14877       0.39146       0.46132      22.21880      32.14120      23.38000       0.70702       2.33873  
    32.78960      22.00630       3.82674       1.79218     214.61300       8.52402       2.24245       0.39033       0.46196      22.59380      25.96180      21.34700       0.73866       2.23737  
    30.25060      19.82280       3.88061       2.86865     157.57700      10.25060       5.05767       0.24312       0.43893      16.37500      46.44780      18.85010       0.72017       2.70690  
    25.89550      14.65030       4.09844       4.54177      82.60860       8.00526       5.83372       0.19449       0.38643      10.59380      30.00950      15.86240       0.67766       3.05623  
    20.80600       9.99358       4.67470       5.14089      77.78100       9.56464      11.05140       0.23018       0.36184       9.50000      68.80650      12.07900       0.69388       3.42707  
    15.84890       5.88311       5.55533       5.74850      76.55620       6.86777       4.85821       0.27417       0.35028      11.06250      25.80860       9.48346       0.73031       3.65053  
314n838w                       31.37900     -83.75000      92.00000        32  
 tmp_max_ave   tmp_min_ave    tmp_max_sd    tmp_min_sd       pcp_ave        pcp_sd      pcp_skew       wet_dry       wet_wet      pcp_days       pcp_hhr       slr_ave       dew_ave       wnd_ave  
    14.39120       4.76496       5.19702       5.78770     104.92200       8.59174       4.07645       0.30308       0.38726      12.75000      25.10450      10.21490       0.74297       4.17630  
    16.42310       6.40619       5.13468       5.35788     107.55200      10.29570       4.67600       0.30451       0.36390      10.90620      35.68240      13.20850       0.73858       4.16901  
    20.33910       9.60416       4.78070       4.98637     114.60700      10.03620       5.31102       0.27922       0.36968      11.75000      43.49060      17.78660       0.73364       3.85613  
    24.50200      12.83600       4.35106       4.13231      87.21590       7.98718       5.01045       0.24127       0.37576      10.31250      25.83080      22.72620       0.68068       3.38328  
    29.48220      17.45170       3.53610       3.11466     106.11700       7.58857       4.89776       0.26270       0.40000      13.12500      27.63390      25.06470       0.64671       2.88284  
    32.34300      21.08050       3.76475       2.12300     175.38700      10.63830       4.80486       0.31915       0.44692      18.25000      40.57360      23.62430       0.68546       2.48710  
    33.53450      22.39750       3.60211       1.51366     195.14100       8.30490       2.98976       0.36140       0.46535      22.09380      29.82680      23.45360       0.70662       2.38184  
    32.77510      21.99300       3.81073       1.78751     208.73500       8.69070       2.88164       0.39416       0.45961      22.43750      29.81420      21.21880       0.73577       2.28344  
    30.28560      19.82660       3.84549       2.87044     156.33000      10.43870       4.69733       0.25164       0.43936      15.71880      39.56030      18.91220       0.71246       2.79179  
    25.94960      14.71310       4.07811       4.51776      78.63420       7.60176       5.63171       0.17735       0.39252      10.03120      27.24580      15.92780       0.66636       3.21750  
    20.79910      10.03350       4.68279       5.11462      77.31890       8.75434       8.50911       0.23449       0.35117       9.34375      54.99020      12.12230       0.68680       3.66720  
    15.80790       5.93759       5.55205       5.74104      76.17670       6.76488       4.64281       0.26176       0.35447      10.84380      21.03090       9.53565       0.72450       3.98677  
314n841w                       31.37900     -84.06250      71.00000        32  
 tmp_max_ave   tmp_min_ave    tmp_max_sd    tmp_min_sd       pcp_ave        pcp_sd      pcp_skew       wet_dry       wet_wet      pcp_days       pcp_hhr       slr_ave       dew_ave       wnd_ave  
    14.38070       4.84358       5.20986       5.77493     103.84500       8.56808       4.09631       0.29252       0.38861      12.62500      23.68410      10.21350       0.73946       4.27616  
    16.45950       6.47682       5.11671       5.33635     108.27600      10.33000       4.64589       0.29517       0.36522      10.78120      38.68170      13.27860       0.73354       4.26653  
    20.38810       9.65375       4.77539       4.95812     117.15700      10.64440       5.69277       0.27724       0.36956      11.50000      48.46920      17.82820       0.72950       3.90915  
    24.57220      12.84590       4.33145       4.12107      85.71740       7.95311       5.16278       0.23557       0.36677       9.96875      29.28550      22.71760       0.67866       3.41981  
    29.57740      17.49880       3.53681       3.11592     102.02500       7.83816       6.02943       0.25719       0.40000      12.50000      40.11100      25.06300       0.64287       2.89068  
    32.51210      21.15360       3.81721       2.11357     171.13400      11.06420       5.51850       0.31234       0.43517      17.59380      49.70780      23.78400       0.67825       2.48873  
    33.67520      22.45480       3.64277       1.51107     181.57700       7.99840       2.93387       0.35161       0.46188      21.31250      26.86360      23.45650       0.70221       2.37589  
    32.98140      22.07880       3.83075       1.78503     197.06900       8.96818       4.07856       0.38384       0.45611      21.71880      38.12770      21.10350       0.72831       2.28619  
    30.48600      19.92640       3.85517       2.85715     156.02500      11.12710       4.96768       0.24426       0.42827      15.03120      42.38030      19.01650       0.70169       2.81543  
    26.07640      14.80290       4.07781       4.50296      74.52650       7.07107       5.03350       0.16910       0.39543       9.56250      23.14970      15.98160       0.65624       3.26674  
    20.83410      10.12140       4.68611       5.09354      77.02570       8.18497       6.13652       0.22139       0.34797       9.25000      37.78040      12.11520       0.68102       3.73922  
    15.79260       6.02789       5.53676       5.72499      75.91500       6.70385       4.54971       0.25746       0.35632      10.87500      21.29710       9.51818       0.72040       4.09142  
317n834w                       31.69120     -83.43750     104.00000        32  
 tmp_max_ave   tmp_min_ave    tmp_max_sd    tmp_min_sd       pcp_ave        pcp_sd      pcp_skew       wet_dry       wet_wet      pcp_days       pcp_hhr       slr_ave       dew_ave       wnd_ave  
    13.94710       4.30105       5.18624       5.79453     103.82700       8.35213       4.05994       0.31424       0.38942      13.00000      24.36540      10.01700       0.74376       3.88086  
    15.95520       5.95704       5.15887       5.40651     102.65400       9.67399       4.72499       0.30783       0.36056      11.09380      36.42860      12.96120       0.74115       3.88630  
    20.02700       9.28613       4.81147       5.04190     113.30300       9.48758       4.72108       0.27941       0.36053      11.87500      36.11890      17.54730       0.73212       3.67854  
    24.27510      12.61100       4.42593       4.24273      87.29680       7.72979       4.59525       0.24516       0.37941      10.62500      25.36700      22.59180       0.67828       3.28411  
    29.38250      17.24990       3.63696       3.25858      99.68170       6.88461       3.94756       0.25308       0.40758      13.18750      21.97060      24.90760       0.64352       2.82992  
    32.48060      21.00170       3.81698       2.25105     158.34300       8.52522       3.35114       0.32031       0.44618      18.00000      30.76770      23.66840       0.67682       2.46130  
    33.89990      22.48590       3.73882       1.60947     185.53600       8.03944       2.46787       0.36129       0.44868      21.31250      23.56880      23.19230       0.68949       2.37932  
    33.11640      22.02080       3.86119       1.86244     192.57900       8.30934       3.06985       0.34210       0.46366      21.50000      33.57840      21.20770       0.71728       2.27147  
    30.32580      19.57430       4.01824       3.01119     149.04000      10.33790       5.17343       0.26304       0.43000      15.62500      44.58410      18.73610       0.70338       2.71464  
    25.71980      14.30270       4.17721       4.61359      75.02880       7.44927       6.07314       0.18491       0.37025       9.87500      30.05520      15.79210       0.66660       3.07666  
    20.47100       9.59638       4.70812       5.15856      80.86680      10.20600      10.10910       0.23566       0.37143       9.84375      68.06150      11.86090       0.68849       3.44267  
    15.38560       5.47137       5.59899       5.75289      79.72510       7.29704       5.29336       0.26923       0.36288      11.28120      30.80020       9.37007       0.72563       3.70062  
317n838w                       31.69120     -83.75000     122.00000        32  
 tmp_max_ave   tmp_min_ave    tmp_max_sd    tmp_min_sd       pcp_ave        pcp_sd      pcp_skew       wet_dry       wet_wet      pcp_days       pcp_hhr       slr_ave       dew_ave       wnd_ave  
    13.89720       4.34756       5.18840       5.77681     102.79000       8.30180       4.08106       0.30862       0.39320      12.87500      23.99470      10.03170       0.73804       4.19400  
    15.94870       6.00719       5.15667       5.37579     104.26500       9.91066       4.77911       0.29696       0.35942      10.78120      34.89770      13.06660       0.73302       4.19336  
    20.04140       9.31394       4.80720       5.02865     114.82600       9.74719       4.94701       0.26678       0.37008      11.90620      38.71380      17.62940       0.72589       3.88347  
    24.29500      12.64380       4.37524       4.22091      87.04810       7.80178       4.76203       0.24089       0.37082      10.28120      27.31720      22.59100       0.67312       3.42749  
    29.34960      17.36910       3.57598       3.22960     101.26300       7.26491       4.43663       0.25172       0.39903      12.84380      26.96040      24.96810       0.63820       2.89697  
    32.43450      21.07560       3.73584       2.19729     160.13100       9.17892       3.83092       0.32051       0.44386      17.81250      32.84650      23.78950       0.67122       2.49982  
    33.79310      22.49290       3.66955       1.58569     179.71500       8.17873       3.27809       0.35650       0.44781      20.65620      33.46360      23.29270       0.68851       2.41624  
    33.09500      22.01280       3.82145       1.86862     189.12900       8.33188       2.80070       0.36859       0.45294      21.25000      25.47630      21.13760       0.71400       2.30970  
    30.36380      19.59990       3.96835       3.00056     148.66800      10.55850       4.94118       0.24788       0.43238      15.25000      41.32100      18.83220       0.69479       2.79170  
    25.74790      14.36190       4.16034       4.59042      73.80460       7.30740       5.70747       0.16813       0.38961       9.62500      28.73280      15.84390       0.65648       3.22135  
    20.45080       9.64317       4.69063       5.13715      81.98320      10.27660       9.83422       0.23394       0.33987       9.56250      65.80240      11.89870       0.68137       3.65058  
    15.31470       5.50486       5.57789       5.73092      81.71180       7.35023       5.02774       0.27896       0.36290      11.62500      29.59250       9.41875       0.72033       3.99674  
317n841w                       31.69120     -84.06250      79.00000        32  
 tmp_max_ave   tmp_min_ave    tmp_max_sd    tmp_min_sd       pcp_ave        pcp_sd      pcp_skew       wet_dry       wet_wet      pcp_days       pcp_hhr       slr_ave       dew_ave       wnd_ave  
    13.85920       4.40446       5.18548       5.75299     103.03100       8.33445       4.12168       0.31142       0.38647      12.93750      25.69840      10.04070       0.73362       4.30594  
    15.95950       6.05430       5.14184       5.37237     103.22300       9.38664       4.24872       0.29676       0.36782      10.87500      33.85350      13.12950       0.72691       4.30265  
    20.08480       9.31381       4.81403       5.00959     117.06700      10.17190       5.18439       0.26190       0.36188      11.31250      40.88310      17.66720       0.72117       3.94744  
    24.34030      12.59040       4.33925       4.20551      86.96850       8.30994       6.01875       0.24522       0.36747      10.37500      34.31490      22.56890       0.67076       3.47797  
    29.42590      17.32450       3.55001       3.23990     101.35700       7.75948       5.27322       0.24958       0.39340      12.31250      35.20410      24.96900       0.63544       2.91083  
    32.55910      21.05860       3.78416       2.18875     161.84100      10.32380       4.87747       0.31683       0.44065      17.37500      43.31870      23.87560       0.66611       2.49759  
    33.87520      22.49950       3.70268       1.59245     174.83600       8.52508       4.45771       0.37092       0.44427      20.46880      42.10150      23.29100       0.68617       2.40601  
    33.23850      22.05150       3.83999       1.88079     184.61200       8.95274       3.95312       0.35347       0.45840      20.65620      33.21130      21.09690       0.70939       2.30812  
    30.49270      19.64350       3.97245       2.97165     149.89100      11.52850       5.55959       0.25205       0.42161      14.75000      50.50570      18.92470       0.68626       2.81692  
    25.80870      14.38990       4.16323       4.57263      74.85430       7.35217       5.14003       0.16426       0.38255       9.31250      26.54640      15.88360       0.64899       3.26955  
    20.44590       9.70647       4.68996       5.12093      82.12110       9.55157       7.72935       0.22458       0.33555       9.40625      49.77750      11.88460       0.67640       3.72386  
    15.25430       5.57107       5.54632       5.69984      84.25050       7.59033       5.17582       0.27302       0.36885      11.43750      30.80260       9.40483       0.71628       4.10622  
320n834w                       32.00350     -83.43750      86.00000        32  
 tmp_max_ave   tmp_min_ave    tmp_max_sd    tmp_min_sd       pcp_ave        pcp_sd      pcp_skew       wet_dry       wet_wet      pcp_days       pcp_hhr       slr_ave       dew_ave       wnd_ave  
    13.52150       3.95144       5.18314       5.75729     101.60700       8.26802       4.65713       0.30570       0.39225      12.90620      33.27550       9.84625       0.73872       4.00844  
    15.53510       5.60183       5.19789       5.41198      98.45100       8.98435       4.34524       0.31091       0.35311      11.06250      31.52720      12.82890       0.73606       4.00925  
    19.73390       8.96780       4.83903       5.04785     116.29100       9.79972       4.74577       0.29624       0.35171      11.90620      31.45150      17.39720       0.72769       3.77913  
    24.05380      12.31850       4.43253       4.32900      90.79690       8.08163       4.56603       0.24593       0.39595      10.81250      26.78550      22.46930       0.67701       3.36406  
    29.24620      17.04650       3.65964       3.39010      95.96360       6.95281       4.65070       0.24411       0.38287      12.40620      27.12020      24.82270       0.63904       2.87333  
    32.58890      20.93230       3.78775       2.32384     149.94300       8.51186       3.29353       0.29398       0.44037      17.03120      26.87450      23.80520       0.66378       2.49656  
    34.17580      22.56560       3.75141       1.69596     173.66500       7.83562       2.57453       0.33819       0.44992      20.28120      28.30080      22.96760       0.67200       2.42104  
    33.42080      22.02440       3.88313       1.94963     171.77300       7.93422       2.87374       0.34884       0.44753      20.25000      27.18330      21.15580       0.69697       2.30895  
    30.39970      19.35220       4.14669       3.11254     139.20200      10.02240       4.84725       0.25257       0.42706      14.78120      37.20820      18.67490       0.68717       2.73852  
    25.48500      13.96620       4.23870       4.65840      73.26750       7.30768       6.10038       0.16306       0.38796       9.34375      30.65180      15.70100       0.66086       3.12356  
    20.14480       9.27599       4.70874       5.15853      81.33530       9.29105       6.98420       0.23159       0.35390       9.62500      42.85730      11.67980       0.68493       3.50792  
    14.94570       5.12464       5.59734       5.72695      82.32430       7.35064       5.22863       0.28618       0.36870      11.78120      32.30460       9.26341       0.72116       3.81284  
320n838w                       32.00350     -83.75000      84.00000        32  
 tmp_max_ave   tmp_min_ave    tmp_max_sd    tmp_min_sd       pcp_ave        pcp_sd      pcp_skew       wet_dry       wet_wet      pcp_days       pcp_hhr       slr_ave       dew_ave       wnd_ave  
    13.46420       4.08418       5.17580       5.69252     101.45300       8.23759       4.72697       0.30189       0.39364      12.78120      35.38350       9.85873       0.72892       4.24746  
    15.56830       5.73486       5.21668       5.35980      98.47880       8.90126       4.40675       0.31091       0.35876      11.06250      32.68310      12.88710       0.72162       4.25382  
    19.88840       9.10897       4.88145       5.02278     116.27800       9.71686       4.75647       0.27581       0.36828      11.62500      34.24610      17.45810       0.71118       3.94972  
    24.30240      12.54620       4.42503       4.26595      90.43820       8.57541       5.41337       0.24516       0.37941      10.62500      30.66200      22.41190       0.65784       3.50416  
    29.39340      17.33820       3.58367       3.31123      96.46980       7.18662       4.80741       0.25291       0.38205      12.18750      28.86670      24.75590       0.62448       2.94338  
    32.62590      21.15250       3.70579       2.25597     152.38100       9.13346       4.10474       0.30296       0.42960      17.31250      36.81610      23.75440       0.65430       2.52312  
    34.04790      22.68280       3.65120       1.63885     172.80000       8.61701       4.88370       0.33616       0.44671      19.93750      46.62140      22.99130       0.66995       2.44232  
    33.38190      22.13390       3.76827       1.90818     168.34300       7.94016       3.19118       0.35174       0.44599      20.25000      28.55250      21.06870       0.69324       2.33133  
    30.42100      19.48180       4.07088       3.05821     140.09700      10.29770       4.83253       0.23636       0.43441      14.53120      37.01200      18.73650       0.67751       2.79749  
    25.49380      14.13980       4.22620       4.58290      73.80410       7.42643       5.74018       0.16379       0.38514       9.25000      30.26240      15.72670       0.64790       3.23291  
    20.08050       9.42377       4.68060       5.09716      85.28520      10.46310       9.31753       0.23457       0.35577       9.75000      59.74560      11.69910       0.67536       3.66047  
    14.83380       5.26190       5.54655       5.63901      86.39910       7.68175       4.98218       0.28176       0.36658      11.59380      31.66170       9.28151       0.71351       4.03412  
320n841w                       32.00350     -84.06250      99.00000        32  
 tmp_max_ave   tmp_min_ave    tmp_max_sd    tmp_min_sd       pcp_ave        pcp_sd      pcp_skew       wet_dry       wet_wet      pcp_days       pcp_hhr       slr_ave       dew_ave       wnd_ave  
    13.42870       4.36337       5.16884       5.56372     102.66900       8.23774       4.53367       0.30903       0.39664      13.00000      32.86130       9.86690       0.71330       4.37487  
    15.72250       6.00620       5.25559       5.26982      97.86960       8.58268       4.13793       0.31540       0.36712      11.40620      28.14700      12.90150       0.69800       4.39398  
    20.28980       9.40759       4.99068       4.96394     118.99200      10.05510       5.15735       0.27742       0.36828      11.62500      44.45760      17.45530       0.68144       4.06394  
    24.86280      12.87960       4.48737       4.17058      90.54560       8.90909       6.11910       0.24762       0.37273      10.31250      38.07780      22.34990       0.62784       3.61628  
    29.86440      17.63180       3.58432       3.21324      99.18110       8.02807       6.16004       0.24419       0.38560      12.15620      37.71550      24.63970       0.60567       2.99819  
    32.89860      21.45720       3.72894       2.18737     155.41100      10.03680       5.03559       0.29647       0.42617      16.71880      48.01650      23.66650       0.64158       2.53681  
    34.10080      23.01250       3.57516       1.52102     170.91600       9.20084       6.03249       0.35792       0.43131      19.56250      53.28510      22.92600       0.66358       2.44288  
    33.42070      22.54240       3.63041       1.77692     167.48600       8.24729       3.47270       0.33705       0.45024      19.78120      30.60490      21.02810       0.68556       2.33998  
    30.48980      19.85550       3.99323       2.97585     144.12400      11.29640       5.56287       0.23960       0.41978      14.21880      47.75940      18.78480       0.66527       2.83712  
    25.48430      14.44570       4.21463       4.45716      77.67300       7.79452       5.35521       0.16023       0.37543       9.15625      27.72520      15.74820       0.63395       3.29108  
    19.98720       9.70726       4.64768       4.99753      85.85350       9.93769       8.20410       0.23411       0.34921       9.84375      50.02500      11.70060       0.66432       3.74032  
    14.70730       5.56217       5.49261       5.49452      92.35500       8.25634       5.01507       0.28808       0.36220      11.90620      31.92730       9.25506       0.70256       4.15085  
