channel-lte.cha: written by SWAT+ editor v3.0.4 on 2024-12-11 22:05 for SWAT+ rev.61.0.1
      id  name                       cha_ini           cha_hyd           cha_sed           cha_nut  
       1  cha0001                   initcha1        hydcha0001              null           nutcha1  
       2  cha0002                   initcha1        hydcha0002              null           nutcha1  
       3  cha0003                   initcha1        hydcha0003              null           nutcha1  
       4  cha0004                   initcha1        hydcha0004              null           nutcha1  
       5  cha0005                   initcha1        hydcha0005              null           nutcha1  
       6  cha0006                   initcha1        hydcha0006              null           nutcha1  
       7  cha0007                   initcha1        hydcha0007              null           nutcha1  
       8  cha0008                   initcha1        hydcha0008              null           nutcha1  
       9  cha0009                   initcha1        hydcha0009              null           nutcha1  
      10  cha0010                   initcha1        hydcha0010              null           nutcha1  
      11  cha0011                   initcha1        hydcha0011              null           nutcha1  
      12  cha0012                   initcha1        hydcha0012              null           nutcha1  
      13  cha0013                   initcha1        hydcha0013              null           nutcha1  
      14  cha0014                   initcha1        hydcha0014              null           nutcha1  
      15  cha0015                   initcha1        hydcha0015              null           nutcha1  
      16  cha0016                   initcha1        hydcha0016              null           nutcha1  
      17  cha0017                   initcha1        hydcha0017              null           nutcha1  
      18  cha0018                   initcha1        hydcha0018              null           nutcha1  
      19  cha0019                   initcha1        hydcha0019              null           nutcha1  
      20  cha0020                   initcha1        hydcha0020              null           nutcha1  
      21  cha0021                   initcha1        hydcha0021              null           nutcha1  
      22  cha0022                   initcha1        hydcha0022              null           nutcha1  
      23  cha0023                   initcha1        hydcha0023              null           nutcha1  
      24  cha0024                   initcha1        hydcha0024              null           nutcha1  
      25  cha0025                   initcha1        hydcha0025              null           nutcha1  
      26  cha0026                   initcha1        hydcha0026              null           nutcha1  
      27  cha0027                   initcha1        hydcha0027              null           nutcha1  
      28  cha0028                   initcha1        hydcha0028              null           nutcha1  
      29  cha0029                   initcha1        hydcha0029              null           nutcha1  
      30  cha0030                   initcha1        hydcha0030              null           nutcha1  
      31  cha0031                   initcha1        hydcha0031              null           nutcha1  
      32  cha0032                   initcha1        hydcha0032              null           nutcha1  
      33  cha0033                   initcha1        hydcha0033              null           nutcha1  
      34  cha0034                   initcha1        hydcha0034              null           nutcha1  
      35  cha0035                   initcha1        hydcha0035              null           nutcha1  
      36  cha0036                   initcha1        hydcha0036              null           nutcha1  
      37  cha0037                   initcha1        hydcha0037              null           nutcha1  
      38  cha0038                   initcha1        hydcha0038              null           nutcha1  
      39  cha0039                   initcha1        hydcha0039              null           nutcha1  
      40  cha0040                   initcha1        hydcha0040              null           nutcha1  
      41  cha0041                   initcha1        hydcha0041              null           nutcha1  
      42  cha0042                   initcha1        hydcha0042              null           nutcha1  
      43  cha0043                   initcha1        hydcha0043              null           nutcha1  
      44  cha0044                   initcha1        hydcha0044              null           nutcha1  
      45  cha0045                   initcha1        hydcha0045              null           nutcha1  
      46  cha0046                   initcha1        hydcha0046              null           nutcha1  
      47  cha0047                   initcha1        hydcha0047              null           nutcha1  
      48  cha0048                   initcha1        hydcha0048              null           nutcha1  
      49  cha0049                   initcha1        hydcha0049              null           nutcha1  
      50  cha0050                   initcha1        hydcha0050              null           nutcha1  
      51  cha0051                   initcha1        hydcha0051              null           nutcha1  
      52  cha0052                   initcha1        hydcha0052              null           nutcha1  
      53  cha0053                   initcha1        hydcha0053              null           nutcha1  
      54  cha0054                   initcha1        hydcha0054              null           nutcha1  
      55  cha0055                   initcha1        hydcha0055              null           nutcha1  
      56  cha0056                   initcha1        hydcha0056              null           nutcha1  
      57  cha0057                   initcha1        hydcha0057              null           nutcha1  
      58  cha0058                   initcha1        hydcha0058              null           nutcha1  
      59  cha0059                   initcha1        hydcha0059              null           nutcha1  
      60  cha0060                   initcha1        hydcha0060              null           nutcha1  
      61  cha0061                   initcha1        hydcha0061              null           nutcha1  
      62  cha0062                   initcha1        hydcha0062              null           nutcha1  
      63  cha0063                   initcha1        hydcha0063              null           nutcha1  
      64  cha0064                   initcha1        hydcha0064              null           nutcha1  
      65  cha0065                   initcha1        hydcha0065              null           nutcha1  
      66  cha0066                   initcha1        hydcha0066              null           nutcha1  
      67  cha0067                   initcha1        hydcha0067              null           nutcha1  
      68  cha0068                   initcha1        hydcha0068              null           nutcha1  
      69  cha0069                   initcha1        hydcha0069              null           nutcha1  
      70  cha0070                   initcha1        hydcha0070              null           nutcha1  
      71  cha0071                   initcha1        hydcha0071              null           nutcha1  
      72  cha0072                   initcha1        hydcha0072              null           nutcha1  
      73  cha0073                   initcha1        hydcha0073              null           nutcha1  
      74  cha0074                   initcha1        hydcha0074              null           nutcha1  
      75  cha0075                   initcha1        hydcha0075              null           nutcha1  
      76  cha0076                   initcha1        hydcha0076              null           nutcha1  
      77  cha0077                   initcha1        hydcha0077              null           nutcha1  
      78  cha0078                   initcha1        hydcha0078              null           nutcha1  
      79  cha0079                   initcha1        hydcha0079              null           nutcha1  
      80  cha0080                   initcha1        hydcha0080              null           nutcha1  
      81  cha0081                   initcha1        hydcha0081              null           nutcha1  
      82  cha0082                   initcha1        hydcha0082              null           nutcha1  
      83  cha0083                   initcha1        hydcha0083              null           nutcha1  
      84  cha0084                   initcha1        hydcha0084              null           nutcha1  
      85  cha0085                   initcha1        hydcha0085              null           nutcha1  
      86  cha0086                   initcha1        hydcha0086              null           nutcha1  
      87  cha0087                   initcha1        hydcha0087              null           nutcha1  
      88  cha0088                   initcha1        hydcha0088              null           nutcha1  
      89  cha0089                   initcha1        hydcha0089              null           nutcha1  
      90  cha0090                   initcha1        hydcha0090              null           nutcha1  
      91  cha0091                   initcha1        hydcha0091              null           nutcha1  
      92  cha0092                   initcha1        hydcha0092              null           nutcha1  
      93  cha0093                   initcha1        hydcha0093              null           nutcha1  
      94  cha0094                   initcha1        hydcha0094              null           nutcha1  
      95  cha0095                   initcha1        hydcha0095              null           nutcha1  
      96  cha0096                   initcha1        hydcha0096              null           nutcha1  
      97  cha0097                   initcha1        hydcha0097              null           nutcha1  
      98  cha0098                   initcha1        hydcha0098              null           nutcha1  
      99  cha0099                   initcha1        hydcha0099              null           nutcha1  
     100  cha0100                   initcha1        hydcha0100              null           nutcha1  
     101  cha0101                   initcha1        hydcha0101              null           nutcha1  
     102  cha0102                   initcha1        hydcha0102              null           nutcha1  
     103  cha0103                   initcha1        hydcha0103              null           nutcha1  
     104  cha0104                   initcha1        hydcha0104              null           nutcha1  
     105  cha0105                   initcha1        hydcha0105              null           nutcha1  
     106  cha0106                   initcha1        hydcha0106              null           nutcha1  
     107  cha0107                   initcha1        hydcha0107              null           nutcha1  
     108  cha0108                   initcha1        hydcha0108              null           nutcha1  
     109  cha0109                   initcha1        hydcha0109              null           nutcha1  
     110  cha0110                   initcha1        hydcha0110              null           nutcha1  
     111  cha0111                   initcha1        hydcha0111              null           nutcha1  
     112  cha0112                   initcha1        hydcha0112              null           nutcha1  
     113  cha0113                   initcha1        hydcha0113              null           nutcha1  
     114  cha0114                   initcha1        hydcha0114              null           nutcha1  
     115  cha0115                   initcha1        hydcha0115              null           nutcha1  
     116  cha0116                   initcha1        hydcha0116              null           nutcha1  
     117  cha0117                   initcha1        hydcha0117              null           nutcha1  
     118  cha0118                   initcha1        hydcha0118              null           nutcha1  
     119  cha0119                   initcha1        hydcha0119              null           nutcha1  
     120  cha0120                   initcha1        hydcha0120              null           nutcha1  
     121  cha0121                   initcha1        hydcha0121              null           nutcha1  
     122  cha0122                   initcha1        hydcha0122              null           nutcha1  
     123  cha0123                   initcha1        hydcha0123              null           nutcha1  
     124  cha0124                   initcha1        hydcha0124              null           nutcha1  
     125  cha0125                   initcha1        hydcha0125              null           nutcha1  
     126  cha0126                   initcha1        hydcha0126              null           nutcha1  
     127  cha0127                   initcha1        hydcha0127              null           nutcha1  
     128  cha0128                   initcha1        hydcha0128              null           nutcha1  
     129  cha0129                   initcha1        hydcha0129              null           nutcha1  
     130  cha0130                   initcha1        hydcha0130              null           nutcha1  
     131  cha0131                   initcha1        hydcha0131              null           nutcha1  
     132  cha0132                   initcha1        hydcha0132              null           nutcha1  
     133  cha0133                   initcha1        hydcha0133              null           nutcha1  
     134  cha0134                   initcha1        hydcha0134              null           nutcha1  
     135  cha0135                   initcha1        hydcha0135              null           nutcha1  
     136  cha0136                   initcha1        hydcha0136              null           nutcha1  
     137  cha0137                   initcha1        hydcha0137              null           nutcha1  
     138  cha0138                   initcha1        hydcha0138              null           nutcha1  
     139  cha0139                   initcha1        hydcha0139              null           nutcha1  
     140  cha0140                   initcha1        hydcha0140              null           nutcha1  
     141  cha0141                   initcha1        hydcha0141              null           nutcha1  
     142  cha0142                   initcha1        hydcha0142              null           nutcha1  
     143  cha0143                   initcha1        hydcha0143              null           nutcha1  
     144  cha0144                   initcha1        hydcha0144              null           nutcha1  
     145  cha0145                   initcha1        hydcha0145              null           nutcha1  
     146  cha0146                   initcha1        hydcha0146              null           nutcha1  
     147  cha0147                   initcha1        hydcha0147              null           nutcha1  
     148  cha0148                   initcha1        hydcha0148              null           nutcha1  
     149  cha0149                   initcha1        hydcha0149              null           nutcha1  
     150  cha0150                   initcha1        hydcha0150              null           nutcha1  
     151  cha0151                   initcha1        hydcha0151              null           nutcha1  
     152  cha0152                   initcha1        hydcha0152              null           nutcha1  
     153  cha0153                   initcha1        hydcha0153              null           nutcha1  
     154  cha0154                   initcha1        hydcha0154              null           nutcha1  
     155  cha0155                   initcha1        hydcha0155              null           nutcha1  
     156  cha0156                   initcha1        hydcha0156              null           nutcha1  
     157  cha0157                   initcha1        hydcha0157              null           nutcha1  
     158  cha0158                   initcha1        hydcha0158              null           nutcha1  
     159  cha0159                   initcha1        hydcha0159              null           nutcha1  
     160  cha0160                   initcha1        hydcha0160              null           nutcha1  
     161  cha0161                   initcha1        hydcha0161              null           nutcha1  
     162  cha0162                   initcha1        hydcha0162              null           nutcha1  
     163  cha0163                   initcha1        hydcha0163              null           nutcha1  
     164  cha0164                   initcha1        hydcha0164              null           nutcha1  
     165  cha0165                   initcha1        hydcha0165              null           nutcha1  
     166  cha0166                   initcha1        hydcha0166              null           nutcha1  
     167  cha0167                   initcha1        hydcha0167              null           nutcha1  
     168  cha0168                   initcha1        hydcha0168              null           nutcha1  
     169  cha0169                   initcha1        hydcha0169              null           nutcha1  
     170  cha0170                   initcha1        hydcha0170              null           nutcha1  
     171  cha0171                   initcha1        hydcha0171              null           nutcha1  
     172  cha0172                   initcha1        hydcha0172              null           nutcha1  
     173  cha0173                   initcha1        hydcha0173              null           nutcha1  
     174  cha0174                   initcha1        hydcha0174              null           nutcha1  
     175  cha0175                   initcha1        hydcha0175              null           nutcha1  
     176  cha0176                   initcha1        hydcha0176              null           nutcha1  
     177  cha0177                   initcha1        hydcha0177              null           nutcha1  
     178  cha0178                   initcha1        hydcha0178              null           nutcha1  
     179  cha0179                   initcha1        hydcha0179              null           nutcha1  
     180  cha0180                   initcha1        hydcha0180              null           nutcha1  
     181  cha0181                   initcha1        hydcha0181              null           nutcha1  
     182  cha0182                   initcha1        hydcha0182              null           nutcha1  
     183  cha0183                   initcha1        hydcha0183              null           nutcha1  
     184  cha0184                   initcha1        hydcha0184              null           nutcha1  
     185  cha0185                   initcha1        hydcha0185              null           nutcha1  
     186  cha0186                   initcha1        hydcha0186              null           nutcha1  
     187  cha0187                   initcha1        hydcha0187              null           nutcha1  
     188  cha0188                   initcha1        hydcha0188              null           nutcha1  
     189  cha0189                   initcha1        hydcha0189              null           nutcha1  
     190  cha0190                   initcha1        hydcha0190              null           nutcha1  
     191  cha0191                   initcha1        hydcha0191              null           nutcha1  
     192  cha0192                   initcha1        hydcha0192              null           nutcha1  
     193  cha0193                   initcha1        hydcha0193              null           nutcha1  
     194  cha0194                   initcha1        hydcha0194              null           nutcha1  
     195  cha0195                   initcha1        hydcha0195              null           nutcha1  
     196  cha0196                   initcha1        hydcha0196              null           nutcha1  
     197  cha0197                   initcha1        hydcha0197              null           nutcha1  
     198  cha0198                   initcha1        hydcha0198              null           nutcha1  
     199  cha0199                   initcha1        hydcha0199              null           nutcha1  
     200  cha0200                   initcha1        hydcha0200              null           nutcha1  
     201  cha0201                   initcha1        hydcha0201              null           nutcha1  
     202  cha0202                   initcha1        hydcha0202              null           nutcha1  
     203  cha0203                   initcha1        hydcha0203              null           nutcha1  
     204  cha0204                   initcha1        hydcha0204              null           nutcha1  
     205  cha0205                   initcha1        hydcha0205              null           nutcha1  
     206  cha0206                   initcha1        hydcha0206              null           nutcha1  
     207  cha0207                   initcha1        hydcha0207              null           nutcha1  
     208  cha0208                   initcha1        hydcha0208              null           nutcha1  
     209  cha0209                   initcha1        hydcha0209              null           nutcha1  
     210  cha0210                   initcha1        hydcha0210              null           nutcha1  
     211  cha0211                   initcha1        hydcha0211              null           nutcha1  
     212  cha0212                   initcha1        hydcha0212              null           nutcha1  
     213  cha0213                   initcha1        hydcha0213              null           nutcha1  
     214  cha0214                   initcha1        hydcha0214              null           nutcha1  
     215  cha0215                   initcha1        hydcha0215              null           nutcha1  
     216  cha0216                   initcha1        hydcha0216              null           nutcha1  
     217  cha0217                   initcha1        hydcha0217              null           nutcha1  
     218  cha0218                   initcha1        hydcha0218              null           nutcha1  
     219  cha0219                   initcha1        hydcha0219              null           nutcha1  
     220  cha0220                   initcha1        hydcha0220              null           nutcha1  
     221  cha0221                   initcha1        hydcha0221              null           nutcha1  
     222  cha0222                   initcha1        hydcha0222              null           nutcha1  
     223  cha0223                   initcha1        hydcha0223              null           nutcha1  
     224  cha0224                   initcha1        hydcha0224              null           nutcha1  
     225  cha0225                   initcha1        hydcha0225              null           nutcha1  
     226  cha0226                   initcha1        hydcha0226              null           nutcha1  
     227  cha0227                   initcha1        hydcha0227              null           nutcha1  
     228  cha0228                   initcha1        hydcha0228              null           nutcha1  
     229  cha0229                   initcha1        hydcha0229              null           nutcha1  
     230  cha0230                   initcha1        hydcha0230              null           nutcha1  
     231  cha0231                   initcha1        hydcha0231              null           nutcha1  
     232  cha0232                   initcha1        hydcha0232              null           nutcha1  
     233  cha0233                   initcha1        hydcha0233              null           nutcha1  
     234  cha0234                   initcha1        hydcha0234              null           nutcha1  
     235  cha0235                   initcha1        hydcha0235              null           nutcha1  
     236  cha0236                   initcha1        hydcha0236              null           nutcha1  
     237  cha0237                   initcha1        hydcha0237              null           nutcha1  
     238  cha0238                   initcha1        hydcha0238              null           nutcha1  
     239  cha0239                   initcha1        hydcha0239              null           nutcha1  
     240  cha0240                   initcha1        hydcha0240              null           nutcha1  
     241  cha0241                   initcha1        hydcha0241              null           nutcha1  
     242  cha0242                   initcha1        hydcha0242              null           nutcha1  
     243  cha0243                   initcha1        hydcha0243              null           nutcha1  
     244  cha0244                   initcha1        hydcha0244              null           nutcha1  
     245  cha0245                   initcha1        hydcha0245              null           nutcha1  
     246  cha0246                   initcha1        hydcha0246              null           nutcha1  
     247  cha0247                   initcha1        hydcha0247              null           nutcha1  
     248  cha0248                   initcha1        hydcha0248              null           nutcha1  
     249  cha0249                   initcha1        hydcha0249              null           nutcha1  
     250  cha0250                   initcha1        hydcha0250              null           nutcha1  
     251  cha0251                   initcha1        hydcha0251              null           nutcha1  
     252  cha0252                   initcha1        hydcha0252              null           nutcha1  
     253  cha0253                   initcha1        hydcha0253              null           nutcha1  
     254  cha0254                   initcha1        hydcha0254              null           nutcha1  
     255  cha0255                   initcha1        hydcha0255              null           nutcha1  
     256  cha0256                   initcha1        hydcha0256              null           nutcha1  
     257  cha0257                   initcha1        hydcha0257              null           nutcha1  
     258  cha0258                   initcha1        hydcha0258              null           nutcha1  
     259  cha0259                   initcha1        hydcha0259              null           nutcha1  
     260  cha0260                   initcha1        hydcha0260              null           nutcha1  
     261  cha0261                   initcha1        hydcha0261              null           nutcha1  
     262  cha0262                   initcha1        hydcha0262              null           nutcha1  
     263  cha0263                   initcha1        hydcha0263              null           nutcha1  
     264  cha0264                   initcha1        hydcha0264              null           nutcha1  
     265  cha0265                   initcha1        hydcha0265              null           nutcha1  
     266  cha0266                   initcha1        hydcha0266              null           nutcha1  
     267  cha0267                   initcha1        hydcha0267              null           nutcha1  
     268  cha0268                   initcha1        hydcha0268              null           nutcha1  
     269  cha0269                   initcha1        hydcha0269              null           nutcha1  
     270  cha0270                   initcha1        hydcha0270              null           nutcha1  
     271  cha0271                   initcha1        hydcha0271              null           nutcha1  
     272  cha0272                   initcha1        hydcha0272              null           nutcha1  
     273  cha0273                   initcha1        hydcha0273              null           nutcha1  
     274  cha0274                   initcha1        hydcha0274              null           nutcha1  
     275  cha0275                   initcha1        hydcha0275              null           nutcha1  
     276  cha0276                   initcha1        hydcha0276              null           nutcha1  
     277  cha0277                   initcha1        hydcha0277              null           nutcha1  
     278  cha0278                   initcha1        hydcha0278              null           nutcha1  
     279  cha0279                   initcha1        hydcha0279              null           nutcha1  
     280  cha0280                   initcha1        hydcha0280              null           nutcha1  
     281  cha0281                   initcha1        hydcha0281              null           nutcha1  
     282  cha0282                   initcha1        hydcha0282              null           nutcha1  
     283  cha0283                   initcha1        hydcha0283              null           nutcha1  
     284  cha0284                   initcha1        hydcha0284              null           nutcha1  
     285  cha0285                   initcha1        hydcha0285              null           nutcha1  
     286  cha0286                   initcha1        hydcha0286              null           nutcha1  
     287  cha0287                   initcha1        hydcha0287              null           nutcha1  
     288  cha0288                   initcha1        hydcha0288              null           nutcha1  
     289  cha0289                   initcha1        hydcha0289              null           nutcha1  
     290  cha0290                   initcha1        hydcha0290              null           nutcha1  
     291  cha0291                   initcha1        hydcha0291              null           nutcha1  
     292  cha0292                   initcha1        hydcha0292              null           nutcha1  
     293  cha0293                   initcha1        hydcha0293              null           nutcha1  
     294  cha0294                   initcha1        hydcha0294              null           nutcha1  
     295  cha0295                   initcha1        hydcha0295              null           nutcha1  