fire.ops: written by SWAT+ editor v3.0.4 on 2024-12-11 22:05 for SWAT+ rev.61.0.1
name                   chg_cn2     frac_burn  description
grass                  8.00000       1.00000  
tree_intense           8.00000       0.90000  
tree_low               6.00000       0.70000  
