ls_unit.def: written by SWAT+ editor v3.0.4 on 2024-12-11 22:05 for SWAT+ rev.61.0.1
1042
      id              name          area  elem_tot  elements  
       1          rtu00010     419.58000         2       564      -571  
       2          rtu00020      66.42000         2       580      -595  
       3          rtu00030     282.69000         2       572      -579  
       4          rtu00040     537.84000         2       596      -601  
       5          rtu00050     510.30000         2       186      -206  
       6          rtu00060     772.74000         2       131      -149  
       7          rtu00070     584.82000         2        22       -34  
       8          rtu00080     166.05000         2       317      -323  
       9          rtu00090     980.91000         2       154      -170  
      10          rtu00100     123.93000         2       181      -185  
      11          rtu00110      83.43000         2       324      -330  
      12          rtu00120     293.22000         2       150      -153  
      13          rtu00130     554.04000         2       536      -539  
      14          rtu00140     782.46000         2       449      -467  
      15          rtu00150     716.04000         2       527      -535  
      16          rtu00160    3722.76000         2       435      -448  
      17          rtu00170     797.04000         2       284      -299  
      18          rtu00180     526.50000         2       171      -180  
      19          rtu00190     677.97000         2       246      -265  
      20          rtu00200    1385.91000         2       266      -283  
      21          rtu00210    1271.70000         2       112      -117  
      22          rtu00220     961.47000         2        35       -51  
      23          rtu00230     752.49000         2        68       -88  
      24          rtu00240    1626.48000         2        52       -67  
      25          rtu00250     599.40000         2        89      -111  
      26          rtu00260     867.51000         2       118      -130  
      27          rtu00270    1675.08000         2       231      -245  
      28          rtu00280    1006.83000         2         1       -21  
      29          rtu00290     562.14000         2       826      -834  
      30          rtu00300     288.36000         2       835      -843  
      31          rtu00310    1173.69000         2       816      -817  
      32          rtu00320     904.77000         2       807      -815  
      33          rtu00330    1043.28000         2       818      -825  
      34          rtu00340     457.65000         2      1819     -1828  
      35          rtu00350     412.29000         2       695      -705  
      36          rtu00360    1137.24000         2       706      -717  
      37          rtu00370       4.86000         2       727      -730  
      38          rtu00380     607.50000         2      1829     -1837  
      39          rtu00390    1338.12000         2      1504     -1511  
      40          rtu00400    1143.72000         2      2909     -2914  
      41          rtu00410     309.42000         2      1487     -1494  
      42          rtu00420     635.04000         2      1468     -1486  
      43          rtu00430     666.63000         2      1446     -1459  
      44          rtu00440    3133.08000         2       540      -551  
      45          rtu00450      25.92000         2      1850     -1856  
      46          rtu00460    1451.52000         2      1857     -1858  
      47          rtu00470    1629.72000         2      1859     -1860  
      48          rtu00480     364.50000         2       415      -424  
      49          rtu00490      38.88000         2       425      -434  
      50          rtu00500     476.28000         2       519      -526  
      51          rtu00510    2598.48000         2       640      -650  
      52          rtu00520    1590.84000         2       384      -397  
      53          rtu00530     465.75000         2      1161     -1172  
      54          rtu00540     461.70000         2       377      -383  
      55          rtu00550    1739.07000         2       507      -518  
      56          rtu00560     625.32000         2       226      -230  
      57          rtu00570    1152.63000         2       366      -376  
      58          rtu00580    1833.03000         2       856      -857  
      59          rtu00590     746.82000         2      1861     -1864  
      60          rtu00600    1167.21000         2       731      -732  
      61          rtu00610    1679.13000         2      1869     -1871  
      62          rtu00620     609.12000         2       220      -225  
      63          rtu00630     609.93000         2       468      -474  
      64          rtu00640     605.07000         2       344      -353  
      65          rtu00650    1538.19000         2       300      -316  
      66          rtu00660    1365.66000         2       475      -486  
      67          rtu00670    1392.39000         2       487      -495  
      68          rtu00680    3433.59000         2       612      -627  
      69          rtu00690     605.88000         2       207      -219  
      70          rtu00700     582.39000         2       331      -343  
      71          rtu00710     837.54000         2       552      -563  
      72          rtu00720     802.71000         2      1137     -1148  
      73          rtu00730     762.21000         2      1105     -1119  
      74          rtu00740      25.11000         2       718      -726  
      75          rtu00750     327.24000         2       796      -802  
      76          rtu00760     199.26000         2      1120     -1122  
      77          rtu00770    1534.95000         2       934      -937  
      78          rtu00780      44.55000         2      1341     -1360  
      79          rtu00790     976.05000         2       750      -753  
      80          rtu00800     204.93000         2       938      -943  
      81          rtu00810      51.84000         2      1321     -1340  
      82          rtu00820     102.87000         2      1267     -1296  
      83          rtu00830       5.67000         2      1261     -1266  
      84          rtu00840     520.83000         2       686      -694  
      85          rtu00850    1271.70000         2       782      -789  
      86          rtu00860     107.73000         2      1545     -1547  
      87          rtu00870     162.81000         2       673      -679  
      88          rtu00880     182.25000         1       754  
      89          rtu00890      28.35000         2      1297     -1306  
      90          rtu00900     269.73000         2      1228     -1233  
      91          rtu00910      83.43000         2      1131     -1134  
      92          rtu00920    1696.14000         2       874      -889  
      93          rtu00930      61.56000         2       790      -795  
      94          rtu00940    1315.44000         2       739      -741  
      95          rtu00950    1576.26000         2      1061     -1076  
      96          rtu00960     979.29000         2       844      -855  
      97          rtu00970     690.93000         2      1553     -1554  
      98          rtu00980     808.38000         2      1522     -1523  
      99          rtu00990    1186.65000         2      1307     -1320  
     100          rtu01000     678.78000         2      1361     -1368  
     101          rtu01010     903.15000         2      1518     -1521  
     102          rtu01020     533.79000         2      1135     -1136  
     103          rtu01030     971.19000         2       805      -806  
     104          rtu01040     501.39000         2      1149     -1160  
     105          rtu01050     753.30000         2       970      -981  
     106          rtu01060     578.34000         2      1252     -1260  
     107          rtu01070     700.65000         2       407      -414  
     108          rtu01080    1355.13000         2      1512     -1517  
     109          rtu01090     681.21000         2      1123     -1130  
     110          rtu01100    2025.81000         2      1495     -1503  
     111          rtu01110    1047.33000         2      1234     -1251  
     112          rtu01120     562.14000         2      1460     -1467  
     113          rtu01130     630.99000         2      1187     -1195  
     114          rtu01140     554.85000         2       398      -406  
     115          rtu01150    1899.45000         2      1211     -1227  
     116          rtu01160    1124.28000         2       944      -957  
     117          rtu01170     700.65000         2       680      -685  
     118          rtu01180    1221.48000         2      1196     -1210  
     119          rtu01190    1227.15000         2       912      -933  
     120          rtu01200     887.76000         2       746      -749  
     121          rtu01210     592.11000         2       769      -775  
     122          rtu01220     942.03000         2      1433     -1445  
     123          rtu01230    1345.41000         2      1173     -1186  
     124          rtu01240    1829.79000         2       496      -506  
     125          rtu01250     508.68000         2      1094     -1104  
     126          rtu01260    1997.46000         2       628      -639  
     127          rtu01270     765.45000         2       776      -781  
     128          rtu01280    2046.87000         2      1077     -1093  
     129          rtu01290     828.63000         2       890      -911  
     130          rtu01300     605.88000         2       666      -672  
     131          rtu01310    1057.86000         2       742      -745  
     132          rtu01320     628.56000         2      1052     -1060  
     133          rtu01330     939.60000         2       762      -768  
     134          rtu01340    2161.08000         2       803      -804  
     135          rtu01350    1428.03000         2       863      -873  
     136          rtu01360    1693.71000         2       755      -761  
     137          rtu01370    1132.38000         2       354      -365  
     138          rtu01380     554.85000         2       733      -734  
     139          rtu01390     884.52000         2       659      -665  
     140          rtu01400    1110.51000         2       735      -738  
     141          rtu01410     598.59000         2       602      -611  
     142          rtu01420    1201.23000         2       651      -658  
     143          rtu01430     701.46000         2      1651     -1658  
     144          rtu01440    1290.33000         2      1627     -1637  
     145          rtu01450    1006.83000         2      1604     -1618  
     146          rtu01460      55.89000         2      1619     -1626  
     147          rtu01470     285.12000         2      1575     -1593  
     148          rtu01480    1722.06000         2      1555     -1565  
     149          rtu01490    1200.42000         2      1537     -1544  
     150          rtu01500      39.69000         2      2915     -2924  
     151          rtu01510     785.70000         2      2203     -2218  
     152          rtu01520     287.55000         2      2257     -2268  
     153          rtu01530     200.07000         2      2279     -2284  
     154          rtu01540     232.47000         2      2294     -2306  
     155          rtu01550     846.45000         2      2307     -2313  
     156          rtu01560     801.90000         2      2289     -2293  
     157          rtu01570     276.21000         2      3187     -3192  
     158          rtu01580    1406.97000         2      3193     -3199  
     159          rtu01590     153.09000         1      3433  
     160          rtu01600     613.98000         2      3420     -3422  
     161          rtu01610     331.29000         2      3365     -3371  
     162          rtu01620     601.02000         2      3372     -3379  
     163          rtu01630    1286.28000         2      1838     -1849  
     164          rtu01640     168.48000         2      3558     -3560  
     165          rtu01650     364.50000         1      1807  
     166          rtu01660     342.63000         2      2082     -2083  
     167          rtu01670      25.11000         2      1865     -1866  
     168          rtu01680    1178.55000         2      2079     -2081  
     169          rtu01690    1326.78000         2      1739     -1753  
     170          rtu01700     159.57000         2      2030     -2035  
     171          rtu01710       4.05000         2      2022     -2026  
     172          rtu01720     920.16000         2      1050     -1051  
     173          rtu01730     110.97000         2      1997     -2021  
     174          rtu01740    1417.50000         2      2987     -2989  
     175          rtu01750    1328.40000         2      3181     -3182  
     176          rtu01760    1035.18000         2      1723     -1738  
     177          rtu01770    1267.65000         2      2361     -2364  
     178          rtu01780     802.71000         2      1936     -1962  
     179          rtu01790     665.82000         2      2252     -2256  
     180          rtu01800    1458.00000         2      1704     -1709  
     181          rtu01810    1030.32000         2      2991     -2992  
     182          rtu01820     573.48000         2      1038     -1044  
     183          rtu01830     667.44000         2      1928     -1935  
     184          rtu01840     831.06000         2      1710     -1722  
     185          rtu01850    1987.74000         2      1402     -1409  
     186          rtu01860     394.47000         2      2994     -2995  
     187          rtu01870     988.20000         1      3332  
     188          rtu01880    1598.13000         1      2993  
     189          rtu01890    2058.21000         1      2990  
     190          rtu01900    2155.41000         2      3183     -3184  
     191          rtu01910    1632.15000         2      2375     -2380  
     192          rtu01920    2284.20000         2       982     -1002  
     193          rtu01930    1512.27000         2      1369     -1380  
     194          rtu01940     804.33000         2      1524     -1536  
     195          rtu01950    2655.18000         2       958      -969  
     196          rtu01960    2340.09000         2      1659     -1670  
     197          rtu01970     784.89000         2      1671     -1677  
     198          rtu01980     895.05000         2      2168     -2175  
     199          rtu01990    1620.81000         2      1548     -1552  
     200          rtu02000     892.62000         2      1893     -1906  
     201          rtu02010     584.82000         2      1678     -1699  
     202          rtu02020      41.31000         2      2979     -2986  
     203          rtu02030     591.30000         2      2365     -2369  
     204          rtu02040    1129.95000         2      2780     -2800  
     205          rtu02050    1315.44000         2      2948     -2950  
     206          rtu02060     200.88000         2      2973     -2978  
     207          rtu02070     403.38000         2      1808     -1811  
     208          rtu02080     639.90000         2      2343     -2347  
     209          rtu02090      78.57000         2      2314     -2318  
     210          rtu02100      58.32000         2      2801     -2813  
     211          rtu02110     493.29000         2      2725     -2751  
     212          rtu02120     225.99000         2      1812     -1818  
     213          rtu02130     170.91000         2      2358     -2360  
     214          rtu02140     450.36000         2      3064     -3069  
     215          rtu02150     215.46000         2      2963     -2967  
     216          rtu02160     470.61000         2      2933     -2936  
     217          rtu02170     810.00000         2      1045     -1049  
     218          rtu02180     746.01000         2      2752     -2759  
     219          rtu02190     187.11000         2      3060     -3063  
     220          rtu02200     542.70000         2      3036     -3049  
     221          rtu02210     648.00000         2      2056     -2064  
     222          rtu02220     166.86000         2      2714     -2724  
     223          rtu02230      48.60000         2      2337     -2338  
     224          rtu02240     908.01000         2      2353     -2357  
     225          rtu02250      84.24000         2      2247     -2251  
     226          rtu02260    1012.50000         2      2319     -2320  
     227          rtu02270     699.84000         2       858      -859  
     228          rtu02280      63.99000         2      2269     -2278  
     229          rtu02290     539.46000         2      2705     -2709  
     230          rtu02300     668.25000         1      3203  
     231          rtu02310    1731.78000         2      3185     -3186  
     232          rtu02320     958.23000         2      2760     -2779  
     233          rtu02330     661.77000         2      3242     -3250  
     234          rtu02340     753.30000         2      3360     -3364  
     235          rtu02350    1217.43000         1      3331  
     236          rtu02360    1476.63000         2      3052     -3059  
     237          rtu02370     511.11000         2      2968     -2972  
     238          rtu02380     541.89000         1      3200  
     239          rtu02390     585.63000         2      3231     -3238  
     240          rtu02400     623.70000         2      2325     -2326  
     241          rtu02410     626.94000         2      3050     -3051  
     242          rtu02420    2520.72000         2      1872     -1873  
     243          rtu02430    1588.41000         2      1790     -1806  
     244          rtu02440     693.36000         2      2370     -2374  
     245          rtu02450     520.83000         2      2027     -2029  
     246          rtu02460     687.69000         2      2323     -2324  
     247          rtu02470     878.85000         2      1776     -1789  
     248          rtu02480    1489.59000         2      2959     -2962  
     249          rtu02490     643.14000         2      2065     -2070  
     250          rtu02500     539.46000         2      1638     -1650  
     251          rtu02510    1525.23000         2      2348     -2352  
     252          rtu02520    3123.36000         2      2285     -2286  
     253          rtu02530     800.28000         2      2951     -2958  
     254          rtu02540    1046.52000         2      3026     -3035  
     255          rtu02550    1367.28000         2      3018     -3025  
     256          rtu02560     867.51000         2      2710     -2713  
     257          rtu02570     638.28000         2      2694     -2704  
     258          rtu02580    1291.14000         2      2071     -2078  
     259          rtu02590     500.58000         2      2339     -2342  
     260          rtu02600     607.50000         2      2321     -2322  
     261          rtu02610     627.75000         2      2678     -2693  
     262          rtu02620     598.59000         2      2036     -2045  
     263          rtu02630     838.35000         1       861  
     264          rtu02640     535.41000         1       862  
     265          rtu02650    1692.90000         2      1768     -1775  
     266          rtu02660     887.76000         2      2335     -2336  
     267          rtu02670    1752.84000         2      2943     -2947  
     268          rtu02680    2380.59000         2      1874     -1875  
     269          rtu02690     628.56000         2      2668     -2677  
     270          rtu02700     507.06000         2      2656     -2667  
     271          rtu02710    1363.23000         2      3002     -3017  
     272          rtu02720     891.81000         2      2643     -2655  
     273          rtu02730     918.54000         2      1867     -1868  
     274          rtu02740     573.48000         2      1990     -1996  
     275          rtu02750    2263.14000         2      1978     -1989  
     276          rtu02760     640.71000         2      2937     -2942  
     277          rtu02770    1018.98000         2      1423     -1432  
     278          rtu02780     580.77000         1       860  
     279          rtu02790     891.81000         2      2287     -2288  
     280          rtu02800     788.94000         2      1754     -1767  
     281          rtu02810    1095.93000         2      1594     -1603  
     282          rtu02820    1821.69000         2      2929     -2932  
     283          rtu02830    1057.86000         2      2331     -2332  
     284          rtu02840     550.80000         2      1963     -1977  
     285          rtu02850    1163.16000         2      2333     -2334  
     286          rtu02860    1432.08000         2      1570     -1574  
     287          rtu02870     502.20000         2      1566     -1569  
     288          rtu02880    3236.76000         2      2629     -2642  
     289          rtu02890     963.09000         2      2925     -2928  
     290          rtu02900    1141.29000         2      1017     -1037  
     291          rtu02910     945.27000         2      2233     -2246  
     292          rtu02920     543.51000         2      2219     -2232  
     293          rtu02930     570.24000         2      1700     -1703  
     294          rtu02940     882.09000         2      2192     -2202  
     295          rtu02950    2361.96000         2      2327     -2330  
     296          rtu02960     877.23000         2      1381     -1401  
     297          rtu02970     712.80000         2      2176     -2191  
     298          rtu02980    1513.89000         2      1003     -1016  
     299          rtu02990    2887.65000         2      1876     -1892  
     300          rtu03000    1014.12000         2      1907     -1927  
     301          rtu03010     329.67000         2      3951     -3954  
     302          rtu03020     375.03000         2      3937     -3950  
     303          rtu03030     332.10000         2      3918     -3936  
     304          rtu03040    2212.11000         2      3879     -3886  
     305          rtu03050     559.71000         2      3341     -3348  
     306          rtu03060     316.71000         2      3349     -3355  
     307          rtu03070     149.85000         2      3388     -3401  
     308          rtu03080      55.89000         2      3407     -3417  
     309          rtu03090     737.91000         2      4052     -4058  
     310          rtu03100      99.63000         2      3843     -3856  
     311          rtu03110       7.29000         2      3857     -3860  
     312          rtu03120      72.09000         2      3861     -3869  
     313          rtu03130     409.05000         2      4356     -4361  
     314          rtu03140      38.07000         2      4367     -4378  
     315          rtu03150       8.91000         2      4379     -4382  
     316          rtu03160      40.50000         2      4391     -4396  
     317          rtu03170     356.40000         2      4574     -4577  
     318          rtu03180     247.05000         2      4578     -4584  
     319          rtu03190     110.97000         2      4604     -4609  
     320          rtu03200     569.43000         2      4585     -4603  
     321          rtu03210     188.73000         2      4701     -4716  
     322          rtu03220     119.07000         2      4289     -4293  
     323          rtu03230     903.96000         2      4192     -4211  
     324          rtu03240     133.65000         2      4259     -4272  
     325          rtu03250     289.17000         2      4279     -4288  
     326          rtu03260     141.75000         1      4660  
     327          rtu03270     302.94000         2      4312     -4332  
     328          rtu03280    1207.71000         2      4653     -4654  
     329          rtu03290     131.22000         2      3356     -3359  
     330          rtu03300    1268.46000         2      4780     -4785  
     331          rtu03310     623.70000         2      3418     -3419  
     332          rtu03320    1591.65000         2      3337     -3340  
     333          rtu03330     994.68000         2      2151     -2159  
     334          rtu03340     193.59000         2      2162     -2167  
     335          rtu03350     230.04000         2      2513     -2514  
     336          rtu03360       0.81000         1      2515  
     337          rtu03370     528.12000         2      2139     -2150  
     338          rtu03380      50.22000         2      2160     -2161  
     339          rtu03390     265.68000         2      4059     -4063  
     340          rtu03400     402.57000         2      2495     -2497  
     341          rtu03410     444.69000         2      2463     -2467  
     342          rtu03420     405.00000         2      2434     -2439  
     343          rtu03430     132.84000         2      2412     -2416  
     344          rtu03440    1294.38000         2      4066     -4067  
     345          rtu03450     979.29000         2      4070     -4071  
     346          rtu03460    4722.30000         2      1410     -1422  
     347          rtu03470    1980.45000         2      2084     -2100  
     348          rtu03480     590.49000         2      2381     -2382  
     349          rtu03490     326.43000         2      3429     -3430  
     350          rtu03500     460.89000         2      3329     -3330  
     351          rtu03510     771.12000         2      3563     -3565  
     352          rtu03520     362.88000         2      3572     -3573  
     353          rtu03530     965.52000         2      3210     -3213  
     354          rtu03540     161.19000         2      3214     -3217  
     355          rtu03550     151.47000         2      3580     -3582  
     356          rtu03560    1159.11000         2      3320     -3328  
     357          rtu03570      81.81000         1      3583  
     358          rtu03580     534.60000         2      3588     -3589  
     359          rtu03590     532.98000         2      3592     -3593  
     360          rtu03600      73.71000         2      3597     -3598  
     361          rtu03610     221.13000         2      2889     -2908  
     362          rtu03620    2497.23000         2      3169     -3180  
     363          rtu03630     443.07000         2      3603     -3604  
     364          rtu03640    1093.50000         2      3104     -3129  
     365          rtu03650     308.61000         2      3153     -3162  
     366          rtu03660     429.30000         2      3607     -3608  
     367          rtu03670     206.55000         1      3611  
     368          rtu03680     384.75000         2      3092     -3103  
     369          rtu03690    2764.53000         2      3251     -3269  
     370          rtu03700    2465.64000         2      2851     -2856  
     371          rtu03710    1009.26000         2      4717     -4724  
     372          rtu03720      93.96000         2      3614     -3615  
     373          rtu03730    1958.58000         2      4618     -4619  
     374          rtu03740    1057.86000         2      4638     -4645  
     375          rtu03750    1190.70000         2      3609     -3610  
     376          rtu03760     964.71000         2      3612     -3613  
     377          rtu03770     764.64000         2      2829     -2842  
     378          rtu03780    1649.97000         2      3070     -3074  
     379          rtu03790    3067.47000         2      2046     -2055  
     380          rtu03800    2822.85000         2      3201     -3202  
     381          rtu03810    1115.37000         2      3239     -3241  
     382          rtu03820     904.77000         2      2101     -2116  
     383          rtu03830    1652.40000         2      3511     -3532  
     384          rtu03840    1963.44000         2      3546     -3557  
     385          rtu03850     575.10000         2      3218     -3224  
     386          rtu03860     657.72000         2      3533     -3537  
     387          rtu03870     618.03000         2      3693     -3699  
     388          rtu03880     138.51000         2      4035     -4043  
     389          rtu03890     481.95000         2      3686     -3692  
     390          rtu03900    3790.80000         2      3825     -3827  
     391          rtu03910      45.36000         2      2431     -2433  
     392          rtu03920    2099.52000         2      3484     -3493  
     393          rtu03930     153.90000         1      3830  
     394          rtu03940      92.34000         2      3831     -3832  
     395          rtu03950     874.80000         2      3666     -3667  
     396          rtu03960    1839.51000         2      3989     -3998  
     397          rtu03970      22.68000         2      4273     -4278  
     398          rtu03980     443.88000         2      3470     -3483  
     399          rtu03990     493.29000         2      3678     -3685  
     400          rtu04000     166.05000         2      4255     -4258  
     401          rtu04010     819.72000         2      2385     -2390  
     402          rtu04020      37.26000         2      2997     -2998  
     403          rtu04030     588.87000         2      4212     -4231  
     404          rtu04040    1079.73000         2      3594     -3595  
     405          rtu04050     176.58000         2      3463     -3466  
     406          rtu04060    1304.10000         2      4647     -4648  
     407          rtu04070    1394.01000         2      3646     -3651  
     408          rtu04080      83.43000         2      4232     -4238  
     409          rtu04090    2143.26000         2      4628     -4631  
     410          rtu04100     268.11000         2      3278     -3290  
     411          rtu04110     221.13000         2      3971     -3975  