rout_unit.def: written by SWAT+ editor v3.0.4 on 2024-12-11 22:05 for SWAT+ rev.61.0.1
      id              name  elem_tot  elements  
       1          rtu00010         2       564      -571  
       2          rtu00020         2       580      -595  
       3          rtu00030         2       572      -579  
       4          rtu00040         2       596      -601  
       5          rtu00050         2       186      -206  
       6          rtu00060         2       131      -149  
       7          rtu00070         2        22       -34  
       8          rtu00080         2       317      -323  
       9          rtu00090         2       154      -170  
      10          rtu00100         2       181      -185  
      11          rtu00110         2       324      -330  
      12          rtu00120         2       150      -153  
      13          rtu00130         2       536      -539  
      14          rtu00140         2       449      -467  
      15          rtu00150         2       527      -535  
      16          rtu00160         2       435      -448  
      17          rtu00170         2       284      -299  
      18          rtu00180         2       171      -180  
      19          rtu00190         2       246      -265  
      20          rtu00200         2       266      -283  
      21          rtu00210         2       112      -117  
      22          rtu00220         2        35       -51  
      23          rtu00230         2        68       -88  
      24          rtu00240         2        52       -67  
      25          rtu00250         2        89      -111  
      26          rtu00260         2       118      -130  
      27          rtu00270         2       231      -245  
      28          rtu00280         2         1       -21  
      29          rtu00290         2       826      -834  
      30          rtu00300         2       835      -843  
      31          rtu00310         2       816      -817  
      32          rtu00320         2       807      -815  
      33          rtu00330         2       818      -825  
      34          rtu00340         2      1819     -1828  
      35          rtu00350         2       695      -705  
      36          rtu00360         2       706      -717  
      37          rtu00370         2       727      -730  
      38          rtu00380         2      1829     -1837  
      39          rtu00390         2      1504     -1511  
      40          rtu00400         2      2909     -2914  
      41          rtu00410         2      1487     -1494  
      42          rtu00420         2      1468     -1486  
      43          rtu00430         2      1446     -1459  
      44          rtu00440         2       540      -551  
      45          rtu00450         2      1850     -1856  
      46          rtu00460         2      1857     -1858  
      47          rtu00470         2      1859     -1860  
      48          rtu00480         2       415      -424  
      49          rtu00490         2       425      -434  
      50          rtu00500         2       519      -526  
      51          rtu00510         2       640      -650  
      52          rtu00520         2       384      -397  
      53          rtu00530         2      1161     -1172  
      54          rtu00540         2       377      -383  
      55          rtu00550         2       507      -518  
      56          rtu00560         2       226      -230  
      57          rtu00570         2       366      -376  
      58          rtu00580         2       856      -857  
      59          rtu00590         2      1861     -1864  
      60          rtu00600         2       731      -732  
      61          rtu00610         2      1869     -1871  
      62          rtu00620         2       220      -225  
      63          rtu00630         2       468      -474  
      64          rtu00640         2       344      -353  
      65          rtu00650         2       300      -316  
      66          rtu00660         2       475      -486  
      67          rtu00670         2       487      -495  
      68          rtu00680         2       612      -627  
      69          rtu00690         2       207      -219  
      70          rtu00700         2       331      -343  
      71          rtu00710         2       552      -563  
      72          rtu00720         2      1137     -1148  
      73          rtu00730         2      1105     -1119  
      74          rtu00740         2       718      -726  
      75          rtu00750         2       796      -802  
      76          rtu00760         2      1120     -1122  
      77          rtu00770         2       934      -937  
      78          rtu00780         2      1341     -1360  
      79          rtu00790         2       750      -753  
      80          rtu00800         2       938      -943  
      81          rtu00810         2      1321     -1340  
      82          rtu00820         2      1267     -1296  
      83          rtu00830         2      1261     -1266  
      84          rtu00840         2       686      -694  
      85          rtu00850         2       782      -789  
      86          rtu00860         2      1545     -1547  
      87          rtu00870         2       673      -679  
      88          rtu00880         1       754  
      89          rtu00890         2      1297     -1306  
      90          rtu00900         2      1228     -1233  
      91          rtu00910         2      1131     -1134  
      92          rtu00920         2       874      -889  
      93          rtu00930         2       790      -795  
      94          rtu00940         2       739      -741  
      95          rtu00950         2      1061     -1076  
      96          rtu00960         2       844      -855  
      97          rtu00970         2      1553     -1554  
      98          rtu00980         2      1522     -1523  
      99          rtu00990         2      1307     -1320  
     100          rtu01000         2      1361     -1368  
     101          rtu01010         2      1518     -1521  
     102          rtu01020         2      1135     -1136  
     103          rtu01030         2       805      -806  
     104          rtu01040         2      1149     -1160  
     105          rtu01050         2       970      -981  
     106          rtu01060         2      1252     -1260  
     107          rtu01070         2       407      -414  
     108          rtu01080         2      1512     -1517  
     109          rtu01090         2      1123     -1130  
     110          rtu01100         2      1495     -1503  
     111          rtu01110         2      1234     -1251  
     112          rtu01120         2      1460     -1467  
     113          rtu01130         2      1187     -1195  
     114          rtu01140         2       398      -406  
     115          rtu01150         2      1211     -1227  
     116          rtu01160         2       944      -957  
     117          rtu01170         2       680      -685  
     118          rtu01180         2      1196     -1210  
     119          rtu01190         2       912      -933  
     120          rtu01200         2       746      -749  
     121          rtu01210         2       769      -775  
     122          rtu01220         2      1433     -1445  
     123          rtu01230         2      1173     -1186  
     124          rtu01240         2       496      -506  
     125          rtu01250         2      1094     -1104  
     126          rtu01260         2       628      -639  
     127          rtu01270         2       776      -781  
     128          rtu01280         2      1077     -1093  
     129          rtu01290         2       890      -911  
     130          rtu01300         2       666      -672  
     131          rtu01310         2       742      -745  
     132          rtu01320         2      1052     -1060  
     133          rtu01330         2       762      -768  
     134          rtu01340         2       803      -804  
     135          rtu01350         2       863      -873  
     136          rtu01360         2       755      -761  
     137          rtu01370         2       354      -365  
     138          rtu01380         2       733      -734  
     139          rtu01390         2       659      -665  
     140          rtu01400         2       735      -738  
     141          rtu01410         2       602      -611  
     142          rtu01420         2       651      -658  
     143          rtu01430         2      1651     -1658  
     144          rtu01440         2      1627     -1637  
     145          rtu01450         2      1604     -1618  
     146          rtu01460         2      1619     -1626  
     147          rtu01470         2      1575     -1593  
     148          rtu01480         2      1555     -1565  
     149          rtu01490         2      1537     -1544  
     150          rtu01500         2      2915     -2924  
     151          rtu01510         2      2203     -2218  
     152          rtu01520         2      2257     -2268  
     153          rtu01530         2      2279     -2284  
     154          rtu01540         2      2294     -2306  
     155          rtu01550         2      2307     -2313  
     156          rtu01560         2      2289     -2293  
     157          rtu01570         2      3187     -3192  
     158          rtu01580         2      3193     -3199  
     159          rtu01590         1      3433  
     160          rtu01600         2      3420     -3422  
     161          rtu01610         2      3365     -3371  
     162          rtu01620         2      3372     -3379  
     163          rtu01630         2      1838     -1849  
     164          rtu01640         2      3558     -3560  
     165          rtu01650         1      1807  
     166          rtu01660         2      2082     -2083  
     167          rtu01670         2      1865     -1866  
     168          rtu01680         2      2079     -2081  
     169          rtu01690         2      1739     -1753  
     170          rtu01700         2      2030     -2035  
     171          rtu01710         2      2022     -2026  
     172          rtu01720         2      1050     -1051  
     173          rtu01730         2      1997     -2021  
     174          rtu01740         2      2987     -2989  
     175          rtu01750         2      3181     -3182  
     176          rtu01760         2      1723     -1738  
     177          rtu01770         2      2361     -2364  
     178          rtu01780         2      1936     -1962  
     179          rtu01790         2      2252     -2256  
     180          rtu01800         2      1704     -1709  
     181          rtu01810         2      2991     -2992  
     182          rtu01820         2      1038     -1044  
     183          rtu01830         2      1928     -1935  
     184          rtu01840         2      1710     -1722  
     185          rtu01850         2      1402     -1409  
     186          rtu01860         2      2994     -2995  
     187          rtu01870         1      3332  
     188          rtu01880         1      2993  
     189          rtu01890         1      2990  
     190          rtu01900         2      3183     -3184  
     191          rtu01910         2      2375     -2380  
     192          rtu01920         2       982     -1002  
     193          rtu01930         2      1369     -1380  
     194          rtu01940         2      1524     -1536  
     195          rtu01950         2       958      -969  
     196          rtu01960         2      1659     -1670  
     197          rtu01970         2      1671     -1677  
     198          rtu01980         2      2168     -2175  
     199          rtu01990         2      1548     -1552  
     200          rtu02000         2      1893     -1906  
     201          rtu02010         2      1678     -1699  
     202          rtu02020         2      2979     -2986  
     203          rtu02030         2      2365     -2369  
     204          rtu02040         2      2780     -2800  
     205          rtu02050         2      2948     -2950  
     206          rtu02060         2      2973     -2978  
     207          rtu02070         2      1808     -1811  
     208          rtu02080         2      2343     -2347  
     209          rtu02090         2      2314     -2318  
     210          rtu02100         2      2801     -2813  
     211          rtu02110         2      2725     -2751  
     212          rtu02120         2      1812     -1818  
     213          rtu02130         2      2358     -2360  
     214          rtu02140         2      3064     -3069  
     215          rtu02150         2      2963     -2967  
     216          rtu02160         2      2933     -2936  
     217          rtu02170         2      1045     -1049  
     218          rtu02180         2      2752     -2759  
     219          rtu02190         2      3060     -3063  
     220          rtu02200         2      3036     -3049  
     221          rtu02210         2      2056     -2064  
     222          rtu02220         2      2714     -2724  
     223          rtu02230         2      2337     -2338  
     224          rtu02240         2      2353     -2357  
     225          rtu02250         2      2247     -2251  
     226          rtu02260         2      2319     -2320  
     227          rtu02270         2       858      -859  
     228          rtu02280         2      2269     -2278  
     229          rtu02290         2      2705     -2709  
     230          rtu02300         1      3203  
     231          rtu02310         2      3185     -3186  
     232          rtu02320         2      2760     -2779  
     233          rtu02330         2      3242     -3250  
     234          rtu02340         2      3360     -3364  
     235          rtu02350         1      3331  
     236          rtu02360         2      3052     -3059  
     237          rtu02370         2      2968     -2972  
     238          rtu02380         1      3200  
     239          rtu02390         2      3231     -3238  
     240          rtu02400         2      2325     -2326  
     241          rtu02410         2      3050     -3051  
     242          rtu02420         2      1872     -1873  
     243          rtu02430         2      1790     -1806  
     244          rtu02440         2      2370     -2374  
     245          rtu02450         2      2027     -2029  
     246          rtu02460         2      2323     -2324  
     247          rtu02470         2      1776     -1789  
     248          rtu02480         2      2959     -2962  
     249          rtu02490         2      2065     -2070  
     250          rtu02500         2      1638     -1650  
     251          rtu02510         2      2348     -2352  
     252          rtu02520         2      2285     -2286  
     253          rtu02530         2      2951     -2958  
     254          rtu02540         2      3026     -3035  
     255          rtu02550         2      3018     -3025  
     256          rtu02560         2      2710     -2713  
     257          rtu02570         2      2694     -2704  
     258          rtu02580         2      2071     -2078  
     259          rtu02590         2      2339     -2342  
     260          rtu02600         2      2321     -2322  
     261          rtu02610         2      2678     -2693  
     262          rtu02620         2      2036     -2045  
     263          rtu02630         1       861  
     264          rtu02640         1       862  
     265          rtu02650         2      1768     -1775  
     266          rtu02660         2      2335     -2336  
     267          rtu02670         2      2943     -2947  
     268          rtu02680         2      1874     -1875  
     269          rtu02690         2      2668     -2677  
     270          rtu02700         2      2656     -2667  
     271          rtu02710         2      3002     -3017  
     272          rtu02720         2      2643     -2655  
     273          rtu02730         2      1867     -1868  
     274          rtu02740         2      1990     -1996  
     275          rtu02750         2      1978     -1989  
     276          rtu02760         2      2937     -2942  
     277          rtu02770         2      1423     -1432  
     278          rtu02780         1       860  
     279          rtu02790         2      2287     -2288  
     280          rtu02800         2      1754     -1767  
     281          rtu02810         2      1594     -1603  
     282          rtu02820         2      2929     -2932  
     283          rtu02830         2      2331     -2332  
     284          rtu02840         2      1963     -1977  
     285          rtu02850         2      2333     -2334  
     286          rtu02860         2      1570     -1574  
     287          rtu02870         2      1566     -1569  
     288          rtu02880         2      2629     -2642  
     289          rtu02890         2      2925     -2928  
     290          rtu02900         2      1017     -1037  
     291          rtu02910         2      2233     -2246  
     292          rtu02920         2      2219     -2232  
     293          rtu02930         2      1700     -1703  
     294          rtu02940         2      2192     -2202  
     295          rtu02950         2      2327     -2330  
     296          rtu02960         2      1381     -1401  
     297          rtu02970         2      2176     -2191  
     298          rtu02980         2      1003     -1016  
     299          rtu02990         2      1876     -1892  
     300          rtu03000         2      1907     -1927  
     301          rtu03010         2      3951     -3954  
     302          rtu03020         2      3937     -3950  
     303          rtu03030         2      3918     -3936  
     304          rtu03040         2      3879     -3886  
     305          rtu03050         2      3341     -3348  
     306          rtu03060         2      3349     -3355  
     307          rtu03070         2      3388     -3401  
     308          rtu03080         2      3407     -3417  
     309          rtu03090         2      4052     -4058  
     310          rtu03100         2      3843     -3856  
     311          rtu03110         2      3857     -3860  
     312          rtu03120         2      3861     -3869  
     313          rtu03130         2      4356     -4361  
     314          rtu03140         2      4367     -4378  
     315          rtu03150         2      4379     -4382  
     316          rtu03160         2      4391     -4396  
     317          rtu03170         2      4574     -4577  
     318          rtu03180         2      4578     -4584  
     319          rtu03190         2      4604     -4609  
     320          rtu03200         2      4585     -4603  
     321          rtu03210         2      4701     -4716  
     322          rtu03220         2      4289     -4293  
     323          rtu03230         2      4192     -4211  
     324          rtu03240         2      4259     -4272  
     325          rtu03250         2      4279     -4288  
     326          rtu03260         1      4660  
     327          rtu03270         2      4312     -4332  
     328          rtu03280         2      4653     -4654  
     329          rtu03290         2      3356     -3359  
     330          rtu03300         2      4780     -4785  
     331          rtu03310         2      3418     -3419  
     332          rtu03320         2      3337     -3340  
     333          rtu03330         2      2151     -2159  
     334          rtu03340         2      2162     -2167  
     335          rtu03350         2      2513     -2514  
     336          rtu03360         1      2515  
     337          rtu03370         2      2139     -2150  
     338          rtu03380         2      2160     -2161  
     339          rtu03390         2      4059     -4063  
     340          rtu03400         2      2495     -2497  
     341          rtu03410         2      2463     -2467  
     342          rtu03420         2      2434     -2439  
     343          rtu03430         2      2412     -2416  
     344          rtu03440         2      4066     -4067  
     345          rtu03450         2      4070     -4071  
     346          rtu03460         2      1410     -1422  
     347          rtu03470         2      2084     -2100  
     348          rtu03480         2      2381     -2382  
     349          rtu03490         2      3429     -3430  
     350          rtu03500         2      3329     -3330  
     351          rtu03510         2      3563     -3565  
     352          rtu03520         2      3572     -3573  
     353          rtu03530         2      3210     -3213  
     354          rtu03540         2      3214     -3217  
     355          rtu03550         2      3580     -3582  
     356          rtu03560         2      3320     -3328  
     357          rtu03570         1      3583  
     358          rtu03580         2      3588     -3589  
     359          rtu03590         2      3592     -3593  
     360          rtu03600         2      3597     -3598  
     361          rtu03610         2      2889     -2908  
     362          rtu03620         2      3169     -3180  
     363          rtu03630         2      3603     -3604  
     364          rtu03640         2      3104     -3129  
     365          rtu03650         2      3153     -3162  
     366          rtu03660         2      3607     -3608  
     367          rtu03670         1      3611  
     368          rtu03680         2      3092     -3103  
     369          rtu03690         2      3251     -3269  
     370          rtu03700         2      2851     -2856  
     371          rtu03710         2      4717     -4724  
     372          rtu03720         2      3614     -3615  
     373          rtu03730         2      4618     -4619  
     374          rtu03740         2      4638     -4645  
     375          rtu03750         2      3609     -3610  
     376          rtu03760         2      3612     -3613  
     377          rtu03770         2      2829     -2842  
     378          rtu03780         2      3070     -3074  
     379          rtu03790         2      2046     -2055  
     380          rtu03800         2      3201     -3202  
     381          rtu03810         2      3239     -3241  
     382          rtu03820         2      2101     -2116  
     383          rtu03830         2      3511     -3532  
     384          rtu03840         2      3546     -3557  
     385          rtu03850         2      3218     -3224  
     386          rtu03860         2      3533     -3537  
     387          rtu03870         2      3693     -3699  
     388          rtu03880         2      4035     -4043  
     389          rtu03890         2      3686     -3692  
     390          rtu03900         2      3825     -3827  
     391          rtu03910         2      2431     -2433  
     392          rtu03920         2      3484     -3493  
     393          rtu03930         1      3830  
     394          rtu03940         2      3831     -3832  
     395          rtu03950         2      3666     -3667  
     396          rtu03960         2      3989     -3998  
     397          rtu03970         2      4273     -4278  
     398          rtu03980         2      3470     -3483  
     399          rtu03990         2      3678     -3685  
     400          rtu04000         2      4255     -4258  
     401          rtu04010         2      2385     -2390  
     402          rtu04020         2      2997     -2998  
     403          rtu04030         2      4212     -4231  
     404          rtu04040         2      3594     -3595  
     405          rtu04050         2      3463     -3466  
     406          rtu04060         2      4647     -4648  
     407          rtu04070         2      3646     -3651  
     408          rtu04080         2      4232     -4238  
     409          rtu04090         2      4628     -4631  
     410          rtu04100         2      3278     -3290  
     411          rtu04110         2      3971     -3975  
     412          rtu04120         2      3586     -3587  
     413          rtu04130         2      4161     -4170  
     414          rtu04140         2      4460     -4471  
     415          rtu04150         2      4005     -4020  
     416          rtu04160         2      2501     -2512  
     417          rtu04170         2      4068     -4069  
     418          rtu04180         2      3605     -3606  
     419          rtu04190         2      3601     -3602  
     420          rtu04200         2      3599     -3600  
     421          rtu04210         2      4450     -4455  
     422          rtu04220         2      4294     -4303  
     423          rtu04230         2      4650     -4652  
     424          rtu04240         1      4649  
     425          rtu04250         1      4627  
     426          rtu04260         2      4304     -4311  
     427          rtu04270         2      4447     -4449  
     428          rtu04280         2      3538     -3545  
     429          rtu04290         2      3976     -3988  
     430          rtu04300         2      3668     -3677  
     431          rtu04310         2      4620     -4621  
     432          rtu04320         1      3596  
     433          rtu04330         2      4625     -4626  
     434          rtu04340         2      4064     -4065  
     435          rtu04350         2      2498     -2500  
     436          rtu04360         2      4171     -4176  
     437          rtu04370         2      4177     -4191  
     438          rtu04380         1      4646  
     439          rtu04390         2      2484     -2494  
     440          rtu04400         2      3656     -3665  
     441          rtu04410         2      3913     -3917  
     442          rtu04420         2      4610     -4617  
     443          rtu04430         2      4106     -4118  
     444          rtu04440         2      3494     -3510  
     445          rtu04450         2      4443     -4446  
     446          rtu04460         2      3887     -3902  
     447          rtu04470         2      4150     -4160  
     448          rtu04480         2      2468     -2483  
     449          rtu04490         2      3967     -3970  
     450          rtu04500         2      3590     -3591  
     451          rtu04510         2      3835     -3836  
     452          rtu04520         2      2448     -2462  
     453          rtu04530         2      4383     -4390  
     454          rtu04540         1      2996  
     455          rtu04550         2      3903     -3912  
     456          rtu04560         2      3961     -3966  
     457          rtu04570         2      3833     -3834  
     458          rtu04580         2      3467     -3469  
     459          rtu04590         2      4127     -4149  
     460          rtu04600         2      3652     -3655  
     461          rtu04610         2      3576     -3579  
     462          rtu04620         2      2857     -2873  
     463          rtu04630         2      3870     -3878  
     464          rtu04640         2      2440     -2447  
     465          rtu04650         2      4119     -4126  
     466          rtu04660         2      4088     -4105  
     467          rtu04670         2      3225     -3230  
     468          rtu04680         2      3574     -3575  
     469          rtu04690         2      4362     -4366  
     470          rtu04700         2      3584     -3585  
     471          rtu04710         2      3955     -3960  
     472          rtu04720         2      3311     -3319  
     473          rtu04730         2      3431     -3432  
     474          rtu04740         2      3291     -3292  
     475          rtu04750         2      2417     -2422  
     476          rtu04760         2      3448     -3462  
     477          rtu04770         2      3828     -3829  
     478          rtu04780         2      4351     -4355  
     479          rtu04790         2      3402     -3406  
     480          rtu04800         2      3443     -3447  
     481          rtu04810         2      3642     -3645  
     482          rtu04820         2      3130     -3145  
     483          rtu04830         2      3626     -3633  
     484          rtu04840         2      3638     -3641  
     485          rtu04850         2      3566     -3569  
     486          rtu04860         2      3163     -3168  
     487          rtu04870         2      2423     -2430  
     488          rtu04880         2      3570     -3571  
     489          rtu04890         2      3837     -3842  
     490          rtu04900         2      3823     -3824  
     491          rtu04910         1      2999  
     492          rtu04920         2      2400     -2411  
     493          rtu04930         2      3634     -3637  
     494          rtu04940         2      3561     -3562  
     495          rtu04950         2      3207     -3209  
     496          rtu04960         2      3293     -3310  
     497          rtu04970         2      3146     -3152  
     498          rtu04980         2      3439     -3442  
     499          rtu04990         2      3270     -3277  
     500          rtu05000         2      2843     -2850  
     501          rtu05010         2      3204     -3206  
     502          rtu05020         2      3434     -3438  
     503          rtu05030         2      2391     -2399  
     504          rtu05040         2      2814     -2828  
     505          rtu05050         2      2128     -2138  
     506          rtu05060         2      3075     -3091  
     507          rtu05070         2      2383     -2384  
     508          rtu05080         2      3000     -3001  
     509          rtu05090         2      2117     -2127  
     510          rtu05100         2      3425     -3426  