rout_unit.rtu: written by SWAT+ editor v3.0.4 on 2024-12-11 22:05 for SWAT+ rev.61.0.1
      id              name            define               dlr              topo             field  
       1          rtu00010          rtu00010              null      toportu00010          fld00010  
       2          rtu00020          rtu00020              null      toportu00020          fld00020  
       3          rtu00030          rtu00030              null      toportu00030          fld00030  
       4          rtu00040          rtu00040              null      toportu00040          fld00040  
       5          rtu00050          rtu00050              null      toportu00050          fld00050  
       6          rtu00060          rtu00060              null      toportu00060          fld00060  
       7          rtu00070          rtu00070              null      toportu00070          fld00070  
       8          rtu00080          rtu00080              null      toportu00080          fld00080  
       9          rtu00090          rtu00090              null      toportu00090          fld00090  
      10          rtu00100          rtu00100              null      toportu00100          fld00100  
      11          rtu00110          rtu00110              null      toportu00110          fld00110  
      12          rtu00120          rtu00120              null      toportu00120          fld00120  
      13          rtu00130          rtu00130              null      toportu00130          fld00130  
      14          rtu00140          rtu00140              null      toportu00140          fld00140  
      15          rtu00150          rtu00150              null      toportu00150          fld00150  
      16          rtu00160          rtu00160              null      toportu00160          fld00160  
      17          rtu00170          rtu00170              null      toportu00170          fld00170  
      18          rtu00180          rtu00180              null      toportu00180          fld00180  
      19          rtu00190          rtu00190              null      toportu00190          fld00190  
      20          rtu00200          rtu00200              null      toportu00200          fld00200  
      21          rtu00210          rtu00210              null      toportu00210          fld00210  
      22          rtu00220          rtu00220              null      toportu00220          fld00220  
      23          rtu00230          rtu00230              null      toportu00230          fld00230  
      24          rtu00240          rtu00240              null      toportu00240          fld00240  
      25          rtu00250          rtu00250              null      toportu00250          fld00250  
      26          rtu00260          rtu00260              null      toportu00260          fld00260  
      27          rtu00270          rtu00270              null      toportu00270          fld00270  
      28          rtu00280          rtu00280              null      toportu00280          fld00280  
      29          rtu00290          rtu00290              null      toportu00290          fld00290  
      30          rtu00300          rtu00300              null      toportu00300          fld00300  
      31          rtu00310          rtu00310              null      toportu00310          fld00310  
      32          rtu00320          rtu00320              null      toportu00320          fld00320  
      33          rtu00330          rtu00330              null      toportu00330          fld00330  
      34          rtu00340          rtu00340              null      toportu00340          fld00340  
      35          rtu00350          rtu00350              null      toportu00350          fld00350  
      36          rtu00360          rtu00360              null      toportu00360          fld00360  
      37          rtu00370          rtu00370              null      toportu00370          fld00370  
      38          rtu00380          rtu00380              null      toportu00380          fld00380  
      39          rtu00390          rtu00390              null      toportu00390          fld00390  
      40          rtu00400          rtu00400              null      toportu00400          fld00400  
      41          rtu00410          rtu00410              null      toportu00410          fld00410  
      42          rtu00420          rtu00420              null      toportu00420          fld00420  
      43          rtu00430          rtu00430              null      toportu00430          fld00430  
      44          rtu00440          rtu00440              null      toportu00440          fld00440  
      45          rtu00450          rtu00450              null      toportu00450          fld00450  
      46          rtu00460          rtu00460              null      toportu00460          fld00460  
      47          rtu00470          rtu00470              null      toportu00470          fld00470  
      48          rtu00480          rtu00480              null      toportu00480          fld00480  
      49          rtu00490          rtu00490              null      toportu00490          fld00490  
      50          rtu00500          rtu00500              null      toportu00500          fld00500  
      51          rtu00510          rtu00510              null      toportu00510          fld00510  
      52          rtu00520          rtu00520              null      toportu00520          fld00520  
      53          rtu00530          rtu00530              null      toportu00530          fld00530  
      54          rtu00540          rtu00540              null      toportu00540          fld00540  
      55          rtu00550          rtu00550              null      toportu00550          fld00550  
      56          rtu00560          rtu00560              null      toportu00560          fld00560  
      57          rtu00570          rtu00570              null      toportu00570          fld00570  
      58          rtu00580          rtu00580              null      toportu00580          fld00580  
      59          rtu00590          rtu00590              null      toportu00590          fld00590  
      60          rtu00600          rtu00600              null      toportu00600          fld00600  
      61          rtu00610          rtu00610              null      toportu00610          fld00610  
      62          rtu00620          rtu00620              null      toportu00620          fld00620  
      63          rtu00630          rtu00630              null      toportu00630          fld00630  
      64          rtu00640          rtu00640              null      toportu00640          fld00640  
      65          rtu00650          rtu00650              null      toportu00650          fld00650  
      66          rtu00660          rtu00660              null      toportu00660          fld00660  
      67          rtu00670          rtu00670              null      toportu00670          fld00670  
      68          rtu00680          rtu00680              null      toportu00680          fld00680  
      69          rtu00690          rtu00690              null      toportu00690          fld00690  
      70          rtu00700          rtu00700              null      toportu00700          fld00700  
      71          rtu00710          rtu00710              null      toportu00710          fld00710  
      72          rtu00720          rtu00720              null      toportu00720          fld00720  
      73          rtu00730          rtu00730              null      toportu00730          fld00730  
      74          rtu00740          rtu00740              null      toportu00740          fld00740  
      75          rtu00750          rtu00750              null      toportu00750          fld00750  
      76          rtu00760          rtu00760              null      toportu00760          fld00760  
      77          rtu00770          rtu00770              null      toportu00770          fld00770  
      78          rtu00780          rtu00780              null      toportu00780          fld00780  
      79          rtu00790          rtu00790              null      toportu00790          fld00790  
      80          rtu00800          rtu00800              null      toportu00800          fld00800  
      81          rtu00810          rtu00810              null      toportu00810          fld00810  
      82          rtu00820          rtu00820              null      toportu00820          fld00820  
      83          rtu00830          rtu00830              null      toportu00830          fld00830  
      84          rtu00840          rtu00840              null      toportu00840          fld00840  
      85          rtu00850          rtu00850              null      toportu00850          fld00850  
      86          rtu00860          rtu00860              null      toportu00860          fld00860  
      87          rtu00870          rtu00870              null      toportu00870          fld00870  
      88          rtu00880          rtu00880              null      toportu00880          fld00880  
      89          rtu00890          rtu00890              null      toportu00890          fld00890  
      90          rtu00900          rtu00900              null      toportu00900          fld00900  
      91          rtu00910          rtu00910              null      toportu00910          fld00910  
      92          rtu00920          rtu00920              null      toportu00920          fld00920  
      93          rtu00930          rtu00930              null      toportu00930          fld00930  
      94          rtu00940          rtu00940              null      toportu00940          fld00940  
      95          rtu00950          rtu00950              null      toportu00950          fld00950  
      96          rtu00960          rtu00960              null      toportu00960          fld00960  
      97          rtu00970          rtu00970              null      toportu00970          fld00970  
      98          rtu00980          rtu00980              null      toportu00980          fld00980  
      99          rtu00990          rtu00990              null      toportu00990          fld00990  
     100          rtu01000          rtu01000              null      toportu01000          fld01000  
     101          rtu01010          rtu01010              null      toportu01010          fld01010  
     102          rtu01020          rtu01020              null      toportu01020          fld01020  
     103          rtu01030          rtu01030              null      toportu01030          fld01030  
     104          rtu01040          rtu01040              null      toportu01040          fld01040  
     105          rtu01050          rtu01050              null      toportu01050          fld01050  
     106          rtu01060          rtu01060              null      toportu01060          fld01060  
     107          rtu01070          rtu01070              null      toportu01070          fld01070  
     108          rtu01080          rtu01080              null      toportu01080          fld01080  
     109          rtu01090          rtu01090              null      toportu01090          fld01090  
     110          rtu01100          rtu01100              null      toportu01100          fld01100  
     111          rtu01110          rtu01110              null      toportu01110          fld01110  
     112          rtu01120          rtu01120              null      toportu01120          fld01120  
     113          rtu01130          rtu01130              null      toportu01130          fld01130  
     114          rtu01140          rtu01140              null      toportu01140          fld01140  
     115          rtu01150          rtu01150              null      toportu01150          fld01150  
     116          rtu01160          rtu01160              null      toportu01160          fld01160  
     117          rtu01170          rtu01170              null      toportu01170          fld01170  
     118          rtu01180          rtu01180              null      toportu01180          fld01180  
     119          rtu01190          rtu01190              null      toportu01190          fld01190  
     120          rtu01200          rtu01200              null      toportu01200          fld01200  
     121          rtu01210          rtu01210              null      toportu01210          fld01210  
     122          rtu01220          rtu01220              null      toportu01220          fld01220  
     123          rtu01230          rtu01230              null      toportu01230          fld01230  
     124          rtu01240          rtu01240              null      toportu01240          fld01240  
     125          rtu01250          rtu01250              null      toportu01250          fld01250  
     126          rtu01260          rtu01260              null      toportu01260          fld01260  
     127          rtu01270          rtu01270              null      toportu01270          fld01270  
     128          rtu01280          rtu01280              null      toportu01280          fld01280  
     129          rtu01290          rtu01290              null      toportu01290          fld01290  
     130          rtu01300          rtu01300              null      toportu01300          fld01300  
     131          rtu01310          rtu01310              null      toportu01310          fld01310  
     132          rtu01320          rtu01320              null      toportu01320          fld01320  
     133          rtu01330          rtu01330              null      toportu01330          fld01330  
     134          rtu01340          rtu01340              null      toportu01340          fld01340  
     135          rtu01350          rtu01350              null      toportu01350          fld01350  
     136          rtu01360          rtu01360              null      toportu01360          fld01360  
     137          rtu01370          rtu01370              null      toportu01370          fld01370  
     138          rtu01380          rtu01380              null      toportu01380          fld01380  
     139          rtu01390          rtu01390              null      toportu01390          fld01390  
     140          rtu01400          rtu01400              null      toportu01400          fld01400  
     141          rtu01410          rtu01410              null      toportu01410          fld01410  
     142          rtu01420          rtu01420              null      toportu01420          fld01420  
     143          rtu01430          rtu01430              null      toportu01430          fld01430  
     144          rtu01440          rtu01440              null      toportu01440          fld01440  
     145          rtu01450          rtu01450              null      toportu01450          fld01450  
     146          rtu01460          rtu01460              null      toportu01460          fld01460  
     147          rtu01470          rtu01470              null      toportu01470          fld01470  
     148          rtu01480          rtu01480              null      toportu01480          fld01480  
     149          rtu01490          rtu01490              null      toportu01490          fld01490  
     150          rtu01500          rtu01500              null      toportu01500          fld01500  
     151          rtu01510          rtu01510              null      toportu01510          fld01510  
     152          rtu01520          rtu01520              null      toportu01520          fld01520  
     153          rtu01530          rtu01530              null      toportu01530          fld01530  
     154          rtu01540          rtu01540              null      toportu01540          fld01540  
     155          rtu01550          rtu01550              null      toportu01550          fld01550  
     156          rtu01560          rtu01560              null      toportu01560          fld01560  
     157          rtu01570          rtu01570              null      toportu01570          fld01570  
     158          rtu01580          rtu01580              null      toportu01580          fld01580  
     159          rtu01590          rtu01590              null      toportu01590          fld01590  
     160          rtu01600          rtu01600              null      toportu01600          fld01600  
     161          rtu01610          rtu01610              null      toportu01610          fld01610  
     162          rtu01620          rtu01620              null      toportu01620          fld01620  
     163          rtu01630          rtu01630              null      toportu01630          fld01630  
     164          rtu01640          rtu01640              null      toportu01640          fld01640  
     165          rtu01650          rtu01650              null      toportu01650          fld01650  
     166          rtu01660          rtu01660              null      toportu01660          fld01660  
     167          rtu01670          rtu01670              null      toportu01670          fld01670  
     168          rtu01680          rtu01680              null      toportu01680          fld01680  
     169          rtu01690          rtu01690              null      toportu01690          fld01690  
     170          rtu01700          rtu01700              null      toportu01700          fld01700  
     171          rtu01710          rtu01710              null      toportu01710          fld01710  
     172          rtu01720          rtu01720              null      toportu01720          fld01720  
     173          rtu01730          rtu01730              null      toportu01730          fld01730  
     174          rtu01740          rtu01740              null      toportu01740          fld01740  
     175          rtu01750          rtu01750              null      toportu01750          fld01750  
     176          rtu01760          rtu01760              null      toportu01760          fld01760  
     177          rtu01770          rtu01770              null      toportu01770          fld01770  
     178          rtu01780          rtu01780              null      toportu01780          fld01780  
     179          rtu01790          rtu01790              null      toportu01790          fld01790  
     180          rtu01800          rtu01800              null      toportu01800          fld01800  
     181          rtu01810          rtu01810              null      toportu01810          fld01810  
     182          rtu01820          rtu01820              null      toportu01820          fld01820  
     183          rtu01830          rtu01830              null      toportu01830          fld01830  
     184          rtu01840          rtu01840              null      toportu01840          fld01840  
     185          rtu01850          rtu01850              null      toportu01850          fld01850  
     186          rtu01860          rtu01860              null      toportu01860          fld01860  
     187          rtu01870          rtu01870              null      toportu01870          fld01870  
     188          rtu01880          rtu01880              null      toportu01880          fld01880  
     189          rtu01890          rtu01890              null      toportu01890          fld01890  
     190          rtu01900          rtu01900              null      toportu01900          fld01900  
     191          rtu01910          rtu01910              null      toportu01910          fld01910  
     192          rtu01920          rtu01920              null      toportu01920          fld01920  
     193          rtu01930          rtu01930              null      toportu01930          fld01930  
     194          rtu01940          rtu01940              null      toportu01940          fld01940  
     195          rtu01950          rtu01950              null      toportu01950          fld01950  
     196          rtu01960          rtu01960              null      toportu01960          fld01960  
     197          rtu01970          rtu01970              null      toportu01970          fld01970  
     198          rtu01980          rtu01980              null      toportu01980          fld01980  
     199          rtu01990          rtu01990              null      toportu01990          fld01990  
     200          rtu02000          rtu02000              null      toportu02000          fld02000  
     201          rtu02010          rtu02010              null      toportu02010          fld02010  
     202          rtu02020          rtu02020              null      toportu02020          fld02020  
     203          rtu02030          rtu02030              null      toportu02030          fld02030  
     204          rtu02040          rtu02040              null      toportu02040          fld02040  
     205          rtu02050          rtu02050              null      toportu02050          fld02050  
     206          rtu02060          rtu02060              null      toportu02060          fld02060  
     207          rtu02070          rtu02070              null      toportu02070          fld02070  
     208          rtu02080          rtu02080              null      toportu02080          fld02080  
     209          rtu02090          rtu02090              null      toportu02090          fld02090  
     210          rtu02100          rtu02100              null      toportu02100          fld02100  
     211          rtu02110          rtu02110              null      toportu02110          fld02110  
     212          rtu02120          rtu02120              null      toportu02120          fld02120  
     213          rtu02130          rtu02130              null      toportu02130          fld02130  
     214          rtu02140          rtu02140              null      toportu02140          fld02140  
     215          rtu02150          rtu02150              null      toportu02150          fld02150  
     216          rtu02160          rtu02160              null      toportu02160          fld02160  
     217          rtu02170          rtu02170              null      toportu02170          fld02170  
     218          rtu02180          rtu02180              null      toportu02180          fld02180  
     219          rtu02190          rtu02190              null      toportu02190          fld02190  
     220          rtu02200          rtu02200              null      toportu02200          fld02200  
     221          rtu02210          rtu02210              null      toportu02210          fld02210  
     222          rtu02220          rtu02220              null      toportu02220          fld02220  
     223          rtu02230          rtu02230              null      toportu02230          fld02230  
     224          rtu02240          rtu02240              null      toportu02240          fld02240  
     225          rtu02250          rtu02250              null      toportu02250          fld02250  
     226          rtu02260          rtu02260              null      toportu02260          fld02260  
     227          rtu02270          rtu02270              null      toportu02270          fld02270  
     228          rtu02280          rtu02280              null      toportu02280          fld02280  
     229          rtu02290          rtu02290              null      toportu02290          fld02290  
     230          rtu02300          rtu02300              null      toportu02300          fld02300  
     231          rtu02310          rtu02310              null      toportu02310          fld02310  
     232          rtu02320          rtu02320              null      toportu02320          fld02320  
     233          rtu02330          rtu02330              null      toportu02330          fld02330  
     234          rtu02340          rtu02340              null      toportu02340          fld02340  
     235          rtu02350          rtu02350              null      toportu02350          fld02350  
     236          rtu02360          rtu02360              null      toportu02360          fld02360  
     237          rtu02370          rtu02370              null      toportu02370          fld02370  
     238          rtu02380          rtu02380              null      toportu02380          fld02380  
     239          rtu02390          rtu02390              null      toportu02390          fld02390  
     240          rtu02400          rtu02400              null      toportu02400          fld02400  
     241          rtu02410          rtu02410              null      toportu02410          fld02410  
     242          rtu02420          rtu02420              null      toportu02420          fld02420  
     243          rtu02430          rtu02430              null      toportu02430          fld02430  
     244          rtu02440          rtu02440              null      toportu02440          fld02440  
     245          rtu02450          rtu02450              null      toportu02450          fld02450  
     246          rtu02460          rtu02460              null      toportu02460          fld02460  
     247          rtu02470          rtu02470              null      toportu02470          fld02470  
     248          rtu02480          rtu02480              null      toportu02480          fld02480  
     249          rtu02490          rtu02490              null      toportu02490          fld02490  
     250          rtu02500          rtu02500              null      toportu02500          fld02500  
     251          rtu02510          rtu02510              null      toportu02510          fld02510  
     252          rtu02520          rtu02520              null      toportu02520          fld02520  
     253          rtu02530          rtu02530              null      toportu02530          fld02530  
     254          rtu02540          rtu02540              null      toportu02540          fld02540  
     255          rtu02550          rtu02550              null      toportu02550          fld02550  
     256          rtu02560          rtu02560              null      toportu02560          fld02560  
     257          rtu02570          rtu02570              null      toportu02570          fld02570  
     258          rtu02580          rtu02580              null      toportu02580          fld02580  
     259          rtu02590          rtu02590              null      toportu02590          fld02590  
     260          rtu02600          rtu02600              null      toportu02600          fld02600  
     261          rtu02610          rtu02610              null      toportu02610          fld02610  
     262          rtu02620          rtu02620              null      toportu02620          fld02620  
     263          rtu02630          rtu02630              null      toportu02630          fld02630  
     264          rtu02640          rtu02640              null      toportu02640          fld02640  
     265          rtu02650          rtu02650              null      toportu02650          fld02650  
     266          rtu02660          rtu02660              null      toportu02660          fld02660  
     267          rtu02670          rtu02670              null      toportu02670          fld02670  
     268          rtu02680          rtu02680              null      toportu02680          fld02680  
     269          rtu02690          rtu02690              null      toportu02690          fld02690  
     270          rtu02700          rtu02700              null      toportu02700          fld02700  
     271          rtu02710          rtu02710              null      toportu02710          fld02710  
     272          rtu02720          rtu02720              null      toportu02720          fld02720  
     273          rtu02730          rtu02730              null      toportu02730          fld02730  
     274          rtu02740          rtu02740              null      toportu02740          fld02740  
     275          rtu02750          rtu02750              null      toportu02750          fld02750  
     276          rtu02760          rtu02760              null      toportu02760          fld02760  
     277          rtu02770          rtu02770              null      toportu02770          fld02770  
     278          rtu02780          rtu02780              null      toportu02780          fld02780  
     279          rtu02790          rtu02790              null      toportu02790          fld02790  
     280          rtu02800          rtu02800              null      toportu02800          fld02800  
     281          rtu02810          rtu02810              null      toportu02810          fld02810  
     282          rtu02820          rtu02820              null      toportu02820          fld02820  
     283          rtu02830          rtu02830              null      toportu02830          fld02830  
     284          rtu02840          rtu02840              null      toportu02840          fld02840  
     285          rtu02850          rtu02850              null      toportu02850          fld02850  
     286          rtu02860          rtu02860              null      toportu02860          fld02860  
     287          rtu02870          rtu02870              null      toportu02870          fld02870  
     288          rtu02880          rtu02880              null      toportu02880          fld02880  
     289          rtu02890          rtu02890              null      toportu02890          fld02890  
     290          rtu02900          rtu02900              null      toportu02900          fld02900  
     291          rtu02910          rtu02910              null      toportu02910          fld02910  
     292          rtu02920          rtu02920              null      toportu02920          fld02920  
     293          rtu02930          rtu02930              null      toportu02930          fld02930  
     294          rtu02940          rtu02940              null      toportu02940          fld02940  
     295          rtu02950          rtu02950              null      toportu02950          fld02950  