soils.sol: written by SWAT+ editor v3.0.4 on 2024-12-11 22:05 for SWAT+ rev.61.0.1
name                            nly           hyd_grp        dp_tot    anion_excl      perc_crk  texture                              dp            bd           awc        soil_k        carbon          clay          silt          sand          rock           alb        usle_k            ec         caco3            ph  
DSOLMap_942                       6                 C    2000.00000       0.50000       0.50000  WIT_texture                
                                                                                                                                50.00000       1.21300       0.17070      18.31000       4.63300      30.78000      31.88000      37.34000       9.56000       0.21130       0.13060       0.00000       0.00000       0.00000  
                                                                                                                               100.00000       1.23800       0.16500      17.44000       3.99600      31.33000      31.64000      37.03000      10.09000       0.21120       0.13090       0.00000       0.00000       0.00000  
                                                                                                                               300.00000       1.29100       0.15930      14.42000       2.92200      33.66000      30.61000      35.75000      10.60000       0.21070       0.13940       0.00000       0.00000       0.00000  
                                                                                                                               600.00000       1.32200       0.15280      12.37000       2.46000      35.34000      29.88000      34.78000      11.68000       0.21030       0.14560       0.00000       0.00000       0.00000  
                                                                                                                              1000.00000       1.34000       0.15190      12.14000       2.39600      35.10000      29.66000      35.28000      12.73000       0.21060       0.14750       0.00000       0.00000       0.00000  
                                                                                                                              2000.00000       1.34900       0.14640      12.19500       2.44100      34.34000      29.61000      36.06000      13.80000       0.21090       0.14800       0.00000       0.00000       0.00000  
DSOLMap_798                       6                 C    2000.00000       0.50000       0.50000  WIT_texture                
                                                                                                                                50.00000       1.24600       0.14840      24.20000       3.38900      30.16000      23.83000      46.12000       9.98400       0.21130       0.12740       0.00000       0.00000       0.00000  
                                                                                                                               100.00000       1.26300       0.14400      22.17000       2.92000      31.27000      23.67000      44.90000      10.56000       0.21120       0.12800       0.00000       0.00000       0.00000  
                                                                                                                               300.00000       1.30100       0.14000      17.89000       2.04500      34.28000      22.77000      42.94000      11.67000       0.21070       0.13650       0.00000       0.00000       0.00000  
                                                                                                                               600.00000       1.32200       0.13230      14.29000       1.63200      36.50000      22.25000      41.25000      13.10000       0.21010       0.14100       0.00000       0.00000       0.00000  
                                                                                                                              1000.00000       1.33600       0.13330      13.47000       1.51700      36.50000      22.20000      41.30000      14.54000       0.21010       0.14230       0.00000       0.00000       0.00000  
                                                                                                                              2000.00000       1.34300       0.12900      13.17000       1.53700      35.75000      22.55000      41.70000      15.85000       0.21040       0.14380       0.00000       0.00000       0.00000  
DSOLMap_786                       6                 C    2000.00000       0.50000       0.50000  WIT_texture                
                                                                                                                                50.00000       1.22500       0.14800      27.73000       2.79500      29.00000      23.17000      47.80000       7.94500       0.21190       0.12730       0.00000       0.00000       0.00000  
                                                                                                                               100.00000       1.23800       0.14200      26.56000       2.56600      29.73000      22.88000      47.38000       8.43000       0.21180       0.12720       0.00000       0.00000       0.00000  
                                                                                                                               300.00000       1.27700       0.13830      19.77000       1.66500      34.12000      21.86000      43.97000       9.37500       0.21080       0.13650       0.00000       0.00000       0.00000  
                                                                                                                               600.00000       1.29900       0.13210      14.81000       1.26000      37.12000      21.22000      41.66000      10.44000       0.20980       0.14010       0.00000       0.00000       0.00000  
                                                                                                                              1000.00000       1.31100       0.13290      13.83000       1.13600      37.30000      21.10000      41.60000      11.61000       0.20980       0.14110       0.00000       0.00000       0.00000  
                                                                                                                              2000.00000       1.31500       0.12850      13.65000       1.20300      36.62000      21.52000      41.88000      12.75000       0.21010       0.14140       0.00000       0.00000       0.00000  
DSOLMap_785                       6                 C    2000.00000       0.50000       0.50000  WIT_texture                
                                                                                                                                50.00000       1.31900       0.10840      45.25000       2.22900      24.38000      17.06000      58.56000       7.48400       0.21450       0.13040       0.00000       0.00000       0.00000  
                                                                                                                               100.00000       1.33700       0.10570      42.72000       1.94800      25.36000      16.77000      57.88000       8.03000       0.21410       0.13060       0.00000       0.00000       0.00000  
                                                                                                                               300.00000       1.36800       0.10156      33.78000       1.37500      28.64000      16.11000      55.25000       8.62500       0.21280       0.13510       0.00000       0.00000       0.00000  
                                                                                                                               600.00000       1.39200       0.09454      21.92000       1.00800      31.30000      15.79000      52.90000       9.74000       0.21170       0.13710       0.00000       0.00000       0.00000  
                                                                                                                              1000.00000       1.39900       0.09515      20.90000       0.92630      31.44000      15.79000      52.75000      10.98000       0.21170       0.13780       0.00000       0.00000       0.00000  
                                                                                                                              2000.00000       1.40600       0.09140      20.52000       0.85700      31.02000      16.00000      52.97000      12.21000       0.21190       0.13880       0.00000       0.00000       0.00000  
DSOLMap_930                       6                 C    2000.00000       0.50000       0.50000  WIT_texture                
                                                                                                                                50.00000       1.15400       0.15730      25.28000       3.80000      30.10000      24.78000      44.90000       6.33200       0.21130       0.12620       0.00000       0.00000       0.00000  
                                                                                                                               100.00000       1.16700       0.14890      26.06000       3.54000      30.02000      24.11000      46.06000       6.69500       0.21120       0.12494       0.00000       0.00000       0.00000  
                                                                                                                               300.00000       1.20300       0.14610      20.66000       2.54000      33.78000      23.12000      43.10000       7.29300       0.21060       0.13440       0.00000       0.00000       0.00000  
                                                                                                                               600.00000       1.22600       0.14590      16.00000       2.15600      37.00000      22.39000      40.62000       8.03000       0.20960       0.13800       0.00000       0.00000       0.00000  
                                                                                                                              1000.00000       1.22950       0.14560      15.22000       2.03000      37.34000      22.14000      40.53000       8.80500       0.20950       0.13870       0.00000       0.00000       0.00000  
                                                                                                                              2000.00000       1.23000       0.13990      15.41000       2.40600      36.72000      22.52000      40.75000       9.73000       0.20960       0.13560       0.00000       0.00000       0.00000  
DSOLMap_782                       6                 C    2000.00000       0.50000       0.50000  WIT_texture                
                                                                                                                                50.00000       1.27700       0.11224      34.94000       2.02700      30.36000      15.13000      54.53000       5.78500       0.21140       0.12006       0.00000       0.00000       0.00000  
                                                                                                                               100.00000       1.29700       0.10986      31.88000       1.79700      31.67000      14.74000      53.60000       6.30000       0.21100       0.12000       0.00000       0.00000       0.00000  
                                                                                                                               300.00000       1.33100       0.10547      22.38000       1.12200      36.25000      13.86000      49.94000       6.79700       0.20960       0.12520       0.00000       0.00000       0.00000  
                                                                                                                               600.00000       1.35200       0.09610      15.63000       0.71800      38.88000      13.58600      47.53000       7.84400       0.20890       0.12830       0.00000       0.00000       0.00000  
                                                                                                                              1000.00000       1.35800       0.09740      14.80500       0.62260      39.03000      13.69500      47.25000       9.16400       0.20890       0.12940       0.00000       0.00000       0.00000  
                                                                                                                              2000.00000       1.36700       0.09400      14.32000       0.55500      38.53000      14.01000      47.44000      10.52000       0.20910       0.13050       0.00000       0.00000       0.00000  
DSOLMap_937                       6                 C    2000.00000       0.50000       0.50000  WIT_texture                
                                                                                                                                50.00000       1.17500       0.15650      17.72000       3.80000      36.56000      24.60000      38.84000       7.54700       0.20910       0.11960       0.00000       0.00000       0.00000  
                                                                                                                               100.00000       1.19200       0.15150      16.88000       3.26600      37.30000      24.25000      38.44000       7.99600       0.20890       0.11950       0.00000       0.00000       0.00000  
                                                                                                                               300.00000       1.23400       0.14760      13.08600       2.20900      41.22000      22.94000      35.90000       8.83600       0.20790       0.12780       0.00000       0.00000       0.00000  
                                                                                                                               600.00000       1.25600       0.14330      10.79000       1.76600      43.50000      22.33000      34.20000       9.98000       0.20730       0.13370       0.00000       0.00000       0.00000  
                                                                                                                              1000.00000       1.27000       0.14480      10.25000       1.67400      43.56000      22.23000      34.22000      11.21000       0.20740       0.13550       0.00000       0.00000       0.00000  
                                                                                                                              2000.00000       1.27700       0.13890      10.22000       1.82800      42.62000      22.67000      34.70000      12.51600       0.20780       0.13680       0.00000       0.00000       0.00000  
DSOLMap_941                       6                 C    2000.00000       0.50000       0.50000  WIT_texture                
                                                                                                                                50.00000       1.18900       0.16640      23.81000       8.16400      30.10000      25.03000      44.75000      13.65000       0.21040       0.12800       0.00000       0.00000       0.00000  
                                                                                                                               100.00000       1.23700       0.16350      22.55000       6.49000      30.48000      24.69000      44.72000      14.30000       0.21040       0.12830       0.00000       0.00000       0.00000  
                                                                                                                               300.00000       1.28200       0.15900      22.39000       5.30000      29.98000      24.05000      46.12000      15.12500       0.21090       0.13380       0.00000       0.00000       0.00000  
                                                                                                                               600.00000       1.31200       0.15200      18.66000       4.90000      31.17000      23.81000      45.00000      16.47000       0.21060       0.13700       0.00000       0.00000       0.00000  
                                                                                                                              1000.00000       1.32700       0.14970      18.17000       4.90200      30.95000      23.75000      45.30000      17.75000       0.21070       0.13810       0.00000       0.00000       0.00000  
                                                                                                                              2000.00000       1.33600       0.14470      17.83000       5.36700      30.58000      23.97000      45.47000      18.78000       0.21070       0.13890       0.00000       0.00000       0.00000  
DSOLMap_1410                      6                 C    2000.00000       0.50000       0.50000  WIT_texture                
                                                                                                                                50.00000       1.28700       0.16820      21.81000       3.51400      24.08000      37.30000      38.60000       9.76000       0.21450       0.14090       0.00000       0.00000       0.00000  
                                                                                                                               100.00000       1.31800       0.16310      20.42000       3.06600      24.69000      37.06000      38.20000      10.16400       0.21420       0.14170       0.00000       0.00000       0.00000  
                                                                                                                               300.00000       1.38500       0.15390      15.05000       2.02700      28.34000      35.25000      36.47000      10.17000       0.21330       0.15050       0.00000       0.00000       0.00000  
                                                                                                                               600.00000       1.42900       0.14320      12.59000       1.56200      30.12000      34.06000      35.80000      11.03000       0.21290       0.15640       0.00000       0.00000       0.00000  
                                                                                                                              1000.00000       1.45300       0.14040      12.63000       1.46500      29.56000      33.60000      36.84000      11.97000       0.21310       0.15800       0.00000       0.00000       0.00000  
                                                                                                                              2000.00000       1.46300       0.13500      13.01600       1.38100      28.70000      33.00000      38.30000      12.97000       0.21350       0.15820       0.00000       0.00000       0.00000  
DSOLMap_789                       6                 C    2000.00000       0.50000       0.50000  WIT_texture                
                                                                                                                                50.00000       1.18500       0.15150      35.25000       9.50000      22.75000      26.86000      50.28000      11.94000       0.21290       0.13930       0.00000       0.00000       0.00000  
                                                                                                                               100.00000       1.27000       0.15030      32.97000       6.95000      23.23000      26.86000      49.80000      12.46000       0.21280       0.13940       0.00000       0.00000       0.00000  
                                                                                                                               300.00000       1.32600       0.14260      29.66000       5.83600      23.14000      28.10000      48.94000      12.87000       0.21310       0.14420       0.00000       0.00000       0.00000  
                                                                                                                               600.00000       1.36400       0.13600      25.73000       5.60500      23.83000      27.56000      48.62000      14.06000       0.21290       0.14640       0.00000       0.00000       0.00000  
                                                                                                                              1000.00000       1.37100       0.13270      25.53000       5.90600      23.52000      27.44000      49.06000      15.01000       0.21300       0.14720       0.00000       0.00000       0.00000  
                                                                                                                              2000.00000       1.38600       0.12990      24.62000       5.70300      23.36000      27.61000      49.03000      15.65000       0.21340       0.14840       0.00000       0.00000       0.00000  
DSOLMap_750                       6                 C    2000.00000       0.50000       0.50000  WIT_texture                
                                                                                                                                50.00000       1.21600       0.12980      25.14000       2.85700      33.22000      19.28000      47.38000       6.64500       0.21000       0.11870       0.00000       0.00000       0.00000  
                                                                                                                               100.00000       1.23400       0.12600      23.25000       2.54300      34.66000      18.83000      46.70000       7.08000       0.20970       0.11860       0.00000       0.00000       0.00000  
                                                                                                                               300.00000       1.27300       0.12170      18.40000       1.69600      37.56000      18.17000      44.16000       7.88700       0.20920       0.12790       0.00000       0.00000       0.00000  
                                                                                                                               600.00000       1.29300       0.11410      14.38000       1.26600      40.10000      17.69000      42.22000       9.19000       0.20850       0.13280       0.00000       0.00000       0.00000  
                                                                                                                              1000.00000       1.30400       0.11420      13.49000       1.14200      40.34000      17.69000      41.97000      10.66400       0.20850       0.13400       0.00000       0.00000       0.00000  
                                                                                                                              2000.00000       1.31200       0.11050      13.01600       1.06100      39.62000      18.17000      42.22000      12.27000       0.20870       0.13570       0.00000       0.00000       0.00000  
DSOLMap_317                       6                 D    2000.00000       0.50000       0.50000  WIT_texture                
                                                                                                                                50.00000       1.26400       0.13070      26.75000       4.63700      30.33000      20.86000      49.28000      11.28000       0.21120       0.12960       0.00000       0.00000       0.00000  
                                                                                                                               100.00000       1.30400       0.12880      25.88000       3.86100      30.45000      20.81000      49.16000      11.78000       0.21120       0.13010       0.00000       0.00000       0.00000  
                                                                                                                               300.00000       1.34500       0.12427      24.83000       3.01600      29.90000      20.56000      49.50000      12.27000       0.21170       0.13610       0.00000       0.00000       0.00000  
                                                                                                                               600.00000       1.37600       0.11870      19.84000       2.66600      31.22000      20.23000      48.56000      13.64000       0.21130       0.13870       0.00000       0.00000       0.00000  
                                                                                                                              1000.00000       1.38800       0.11786      19.45000       2.64600      30.98000      20.11000      48.90000      14.71000       0.21140       0.13950       0.00000       0.00000       0.00000  
                                                                                                                              2000.00000       1.39700       0.11350      19.36000       2.47300      30.36000      20.33000      49.30000      15.81000       0.21170       0.14070       0.00000       0.00000       0.00000  
DSOLMap_314                       6                 D    2000.00000       0.50000       0.50000  WIT_texture                
                                                                                                                                50.00000       1.30200       0.11163      23.90000       1.66000      36.25000      13.91400      49.88000       5.75000       0.20920       0.11820       0.00000       0.00000       0.00000  
                                                                                                                               100.00000       1.32400       0.11017      21.06000       1.47200      37.44000      13.58600      48.97000       6.32400       0.20900       0.11774       0.00000       0.00000       0.00000  
                                                                                                                               300.00000       1.35300       0.10660      17.14000       0.94140      40.06000      13.04000      46.90000       6.59000       0.20840       0.12260       0.00000       0.00000       0.00000  
                                                                                                                               600.00000       1.37300       0.09840      12.40000       0.53270      42.10000      12.90000      44.97000       7.74200       0.20790       0.12560       0.00000       0.00000       0.00000  
                                                                                                                              1000.00000       1.37900       0.10010      11.91400       0.45730      41.90000      13.16400      44.90000       8.98400       0.20800       0.12710       0.00000       0.00000       0.00000  
                                                                                                                              2000.00000       1.38700       0.09650      11.76600       0.39100      41.25000      13.35000      45.38000      10.25000       0.20830       0.12830       0.00000       0.00000       0.00000  
DSOLMap_746                       6                 D    2000.00000       0.50000       0.50000  WIT_texture                
                                                                                                                                50.00000       1.31300       0.10430      29.31000       1.68500      33.40000      13.54000      53.03000       6.17600       0.21020       0.11950       0.00000       0.00000       0.00000  
                                                                                                                               100.00000       1.33700       0.10380      24.16000       1.46100      35.44000      13.03000      51.56000       6.81000       0.20970       0.11835       0.00000       0.00000       0.00000  
                                                                                                                               300.00000       1.36500       0.09990      18.53000       0.89450      38.50000      12.45000      49.03000       7.08000       0.20890       0.12280       0.00000       0.00000       0.00000  
                                                                                                                               600.00000       1.38600       0.09015      13.39000       0.49020      40.50000      12.31000      47.16000       8.19000       0.20840       0.12540       0.00000       0.00000       0.00000  
                                                                                                                              1000.00000       1.39300       0.09180      12.85000       0.41670      40.38000      12.62000      46.97000       9.55000       0.20850       0.12700       0.00000       0.00000       0.00000  
                                                                                                                              2000.00000       1.40200       0.08875      12.58600       0.31960      39.75000      12.86000      47.38000      10.93000       0.20870       0.12870       0.00000       0.00000       0.00000  
DSOLMap_318                       6                 D    2000.00000       0.50000       0.50000  WIT_texture                
                                                                                                                                50.00000       1.21600       0.12420      23.78000       2.37100      35.16000      18.06000      46.84000       5.25000       0.20940       0.11710       0.00000       0.00000       0.00000  
                                                                                                                               100.00000       1.22900       0.11990      23.03000       2.22900      35.60000      17.90000      46.56000       5.60000       0.20940       0.11740       0.00000       0.00000       0.00000  