tmp.cli: Temperature file names - file written by SWAT+ editor 2024-12-06 20:14:06.002907
filename
chalacotmp.tmp
chuzatmp.tmp
Huancabambatmp.tmp
Huarmacatmp.tmp
Miraflorestmp.tmp
