weather-wgn.cli: written by SWAT+ editor v3.0.4 on 2024-12-11 22:05 for SWAT+ rev.61.0.1
chalaco                        -5.03690     -79.79170      50.00000        20  
 tmp_max_ave   tmp_min_ave    tmp_max_sd    tmp_min_sd       pcp_ave        pcp_sd      pcp_skew       wet_dry       wet_wet      pcp_days       pcp_hhr       slr_ave       dew_ave       wnd_ave  
    31.91065      21.55601       0.47436       1.22840       0.04045       0.25865      10.78787       0.03985       0.17362     225.00000      10.00000       9.91705       0.74831       5.86122  
    32.90344      22.88815       0.51406       0.85939       0.22506       1.26032       8.13550       0.05613       0.13721     187.00000      10.00000       9.91705       0.74831       5.86122  
    32.38327      22.15494       0.62784       1.09602       0.33760       2.13679      12.40923       0.05503       0.11954     197.00000      10.00000       9.91705       0.74831       5.86122  
    31.18771      20.67810       0.67557       1.21456       0.20050       1.73060      19.43661       0.04902       0.11471     176.00000      10.00000       9.91705       0.74831       5.86122  
    29.22941      19.21080       1.15601       1.73317       0.01619       0.16309      14.67308       0.02467       0.10626     149.00000      10.00000       9.91705       0.74831       5.86122  
    26.95517      18.00544       1.25207       1.23516       0.00395       0.06390      15.85653       0.00980       0.09020     104.00000      10.00000       9.91705       0.74831       5.86122  
    25.97411      17.26422       1.11757       1.22800       0.00302       0.03550      17.35307       0.01613       0.14137     168.00000      10.00000       9.91705       0.74831       5.86122  
    25.69296      17.00680       0.87921       1.08756       0.00142       0.00596       7.82335       0.00569       0.14516     159.00000      10.00000       9.91705       0.74831       5.86122  
    26.83662      16.96717       0.87737       0.81366       0.00265       0.03281      28.02789       0.01176       0.17745     197.00000      10.00000       9.91705       0.74831       5.86122  
    27.30874      17.33286       0.84029       0.93394       0.01136       0.18005      24.56493       0.01803       0.11670     147.00000      10.00000       9.91705       0.74831       5.86122  
    28.17383      17.74990       0.66407       0.85964       0.02652       0.24888      14.67001       0.02451       0.11667     147.00000      10.00000       9.91705       0.74831       5.86122  
    30.13762      19.60809       0.65582       1.42040       0.09286       0.85235      14.21898       0.03605       0.13093     186.00000      10.00000       9.91705       0.74831       5.86122  
chuza                          -5.51670     -80.83330      10.00000        20  
 tmp_max_ave   tmp_min_ave    tmp_max_sd    tmp_min_sd       pcp_ave        pcp_sd      pcp_skew       wet_dry       wet_wet      pcp_days       pcp_hhr       slr_ave       dew_ave       wnd_ave  
    23.15634      14.18686       0.81123       0.91162       4.56075       7.23550       3.15648       0.13378       0.52372     693.00000      10.00000       9.91705       0.74831       5.86122  
    23.07618      14.59229       0.73688       0.70547       8.24360      11.57831       2.77977       0.10499       0.68295     759.00000      10.00000       9.91705       0.74831       5.86122  
    24.07816      14.33285       0.58049       0.73948       8.36125      11.48967       2.12648       0.12049       0.59962     759.00000      10.00000       9.91705       0.74831       5.86122  
    24.00838      14.24377       0.60018       0.55323       4.89299       8.06698       2.84179       0.14902       0.47451     637.00000      10.00000       9.91705       0.74831       5.86122  
    24.03842      14.23615       0.61920       0.60033       1.39664       3.57891       4.35389       0.14706       0.17457     340.00000      10.00000       9.91705       0.74831       5.86122  
    23.76590      14.18010       0.55692       0.54108       0.42083       2.07739       9.55089       0.06373       0.04118     107.00000      10.00000       9.91705       0.74831       5.86122  
    24.02453      13.08952       0.64111       0.57562       0.15207       0.85470      10.86968       0.04080       0.04175      87.00000      10.00000       9.91705       0.74831       5.86122  
    24.37993      13.09161       0.43700       0.52849       0.09133       0.52943       8.16082       0.02562       0.02182      50.00000      10.00000       9.91705       0.74831       5.86122  
    24.82051      13.13248       0.58297       0.51739       0.28752       1.39581      10.49390       0.05588       0.06569     124.00000      10.00000       9.91705       0.74831       5.86122  
    24.90211      13.52035       0.56622       0.58178       0.81684       2.52431       4.31600       0.09203       0.11480     218.00000      10.00000       9.91705       0.74831       5.86122  
    24.90358      13.23218       0.61178       0.80788       1.20373       3.57752       5.88904       0.10000       0.15588     261.00000      10.00000       9.91705       0.74831       5.86122  
    23.83373      13.73918       0.61231       0.87277       2.34563       4.82741       3.27975       0.13188       0.31120     468.00000      10.00000       9.91705       0.74831       5.86122  
huamarca                       -5.56600     -79.52500    2180.00000        20  
 tmp_max_ave   tmp_min_ave    tmp_max_sd    tmp_min_sd       pcp_ave        pcp_sd      pcp_skew       wet_dry       wet_wet      pcp_days       pcp_hhr       slr_ave       dew_ave       wnd_ave  
    25.04165      15.94594       0.72575       0.84846       4.19974       7.82323       3.90164       0.11575       0.59677     752.00000      10.00000       9.91705       0.74831       5.86122  
    24.80915      16.54606       0.69035       0.64895       8.40647      13.82026       3.57210       0.09356       0.75052     813.00000      10.00000       9.91705       0.74831       5.86122  
    25.53683      16.52098       0.57889       0.66914       8.83596      13.80445       2.59012       0.09393       0.71442     852.00000      10.00000       9.91705       0.74831       5.86122  
    25.18936      16.10257       0.59675       0.56420       5.04876       9.23380       4.04693       0.12549       0.63431     776.00000      10.00000       9.91705       0.74831       5.86122  
    25.15751      15.17875       0.58912       0.58078       1.38272       3.58221       5.73388       0.15560       0.33681     520.00000      10.00000       9.91705       0.74831       5.86122  
    24.67887      14.40414       0.48672       0.54179       0.34366       1.50767      12.80805       0.10784       0.12353     238.00000      10.00000       9.91705       0.74831       5.86122  
    24.85179      13.98203       0.61973       0.61431       0.16545       0.71006      10.31856       0.06262       0.09298     164.00000      10.00000       9.91705       0.74831       5.86122  
    25.48856      14.10312       0.42170       0.50782       0.12140       0.57297       7.54389       0.05787       0.05313     117.00000      10.00000       9.91705       0.74831       5.86122  
    26.21036      14.31786       0.53253       0.45523       0.31701       1.30395       7.22286       0.07843       0.09804     180.00000      10.00000       9.91705       0.74831       5.86122  
    26.38231      14.49709       0.57751       0.56332       1.05852       3.19087       5.34812       0.13093       0.22201     372.00000      10.00000       9.91705       0.74831       5.86122  
    26.53662      14.48765       0.56099       0.76456       1.25317       3.47104       5.04372       0.11176       0.29216     412.00000      10.00000       9.91705       0.74831       5.86122  
    25.64165      15.28561       0.52480       0.78370       2.45112       5.64134       5.87454       0.12998       0.46110     624.00000      10.00000       9.91705       0.74831       5.86122  
huancabamba                    -5.25000     -79.71700    1952.00000        20  
 tmp_max_ave   tmp_min_ave    tmp_max_sd    tmp_min_sd       pcp_ave        pcp_sd      pcp_skew       wet_dry       wet_wet      pcp_days       pcp_hhr       slr_ave       dew_ave       wnd_ave  
    30.76925      20.77978       0.47974       0.97006       1.77463       4.07584       3.89474       0.16414       0.29412     484.00000      10.00000       9.91705       0.74831       5.86122  
    30.40767      21.69744       0.49651       0.70890       2.78582       5.64843       3.45944       0.16424       0.39813     541.00000      10.00000       9.91705       0.74831       5.86122  
    30.69227      21.42445       0.56887       0.79225       2.70661       5.83188       3.85048       0.18501       0.38805     604.00000      10.00000       9.91705       0.74831       5.86122  
    30.18605      20.79118       0.58193       0.88266       2.11779       4.84606       4.15865       0.18039       0.33039     522.00000      10.00000       9.91705       0.74831       5.86122  
    29.61604      19.30483       0.75561       1.19847       1.04769       2.84150       4.67559       0.16129       0.21063     393.00000      10.00000       9.91705       0.74831       5.86122  
    28.54048      17.59494       0.91079       0.96427       0.49964       1.67139       6.11941       0.11765       0.13137     254.00000      10.00000       9.91705       0.74831       5.86122  
    28.07073      17.31995       0.91495       1.06109       0.36363       1.45602       6.37456       0.08918       0.06357     162.00000      10.00000       9.91705       0.74831       5.86122  
    28.48251      17.20511       0.67404       0.90717       0.28849       1.39392      10.81654       0.08159       0.06831     158.00000      10.00000       9.91705       0.74831       5.86122  
    29.42628      17.91750       0.62083       0.67719       0.45719       1.90752       7.37963       0.11765       0.06961     191.00000      10.00000       9.91705       0.74831       5.86122  
    29.85652      18.29586       0.58070       0.74119       1.46154       4.09248       4.70491       0.14516       0.20588     370.00000      10.00000       9.91705       0.74831       5.86122  
    30.45973      18.55619       0.43822       0.70772       1.70588       4.27215       3.72475       0.15098       0.20490     363.00000      10.00000       9.91705       0.74831       5.86122  
    30.93862      19.80964       0.39192       1.04087       1.74769       3.84940       4.02310       0.15275       0.31309     492.00000      10.00000       9.91705       0.74831       5.86122  
miraflores                     -5.16700     -80.61700      30.00000        20  
 tmp_max_ave   tmp_min_ave    tmp_max_sd    tmp_min_sd       pcp_ave        pcp_sd      pcp_skew       wet_dry       wet_wet      pcp_days       pcp_hhr       slr_ave       dew_ave       wnd_ave  
    33.72286      21.62984       0.42022       1.10776       0.13658       0.87356      12.61489       0.04934       0.04839     103.00000      10.00000       9.91705       0.74831       5.86122  
    34.50048      23.13984       0.35981       0.79563       0.67963       2.99262       6.91751       0.08836       0.12786     208.00000      10.00000       9.91705       0.74831       5.86122  
    34.24650      22.89999       0.49398       0.98057       1.02279       5.64043      10.20148       0.08918       0.15750     260.00000      10.00000       9.91705       0.74831       5.86122  
    32.60555      21.49061       0.62897       1.07056       0.54385       4.81710      18.07098       0.08039       0.16667     253.00000      10.00000       9.91705       0.74831       5.86122  
    30.53185      19.69438       0.98424       1.48938       0.05524       0.42719      18.02240       0.02941       0.06736     102.00000      10.00000       9.91705       0.74831       5.86122  
    28.63475      17.81793       1.16258       1.11352       0.01468       0.10261      11.91953       0.01765       0.06471      84.00000      10.00000       9.91705       0.74831       5.86122  
    27.82088      16.91617       1.08200       1.16534       0.01057       0.12300      24.81349       0.01044       0.05977      74.00000      10.00000       9.91705       0.74831       5.86122  
    27.87965      16.65073       0.83560       0.99162       0.00284       0.02369      18.00993       0.00474       0.02846      35.00000      10.00000       9.91705       0.74831       5.86122  
    29.06223      16.90358       0.76125       0.73629       0.00572       0.03695      12.77130       0.00392       0.05882      64.00000      10.00000       9.91705       0.74831       5.86122  
    29.79103      17.43212       0.72455       0.84702       0.02815       0.22324      15.19052       0.02751       0.06167      94.00000      10.00000       9.91705       0.74831       5.86122  
    30.58824      17.96982       0.60946       0.79426       0.04240       0.36222      13.01353       0.02745       0.04314      72.00000      10.00000       9.91705       0.74831       5.86122  
    32.26365      19.95234       0.55268       1.21276       0.25458       2.55219      15.66038       0.04554       0.05028     101.00000      10.00000       9.91705       0.74831       5.86122  
