aquifer.con: written by SWAT+ editor v3.0.4 on 2024-10-15 00:19 for SWAT+ rev.61.0.1
      id  name                gis_id          area           lat           lon          elev       aqu               wst       cst      ovfl      rule   out_tot       obj_typ    obj_id       hyd_typ          frac  
       1  aqu010                  10   12481.74000     -11.91862     -76.34063    4431.00000         1      s5037s79792w         0         0         0         2           sdc         9           tot       1.00000           aqu        14           rhg       1.00000  
       2  aqu020                  20   12609.36000     -11.96122     -76.29472    4169.00000         2      s5037s79792w         0         0         0         2           sdc        13           tot       1.00000           aqu        14           rhg       1.00000  
       3  aqu030                  30    8877.33000     -12.02040     -76.46592    3087.00000         3      s5037s79792w         0         0         0         2           sdc        83           tot       1.00000           aqu        14           rhg       1.00000  
       4  aqu040                  40    3884.04000     -12.00610     -76.53429    2497.00000         4      s5037s79792w         0         0         0         2           sdc        40           tot       1.00000           aqu        14           rhg       1.00000  
       5  aqu050                  50    9941.22000     -12.03511     -76.38874    3574.00000         5      s5037s79792w         0         0         0         2           sdc        79           tot       1.00000           aqu        14           rhg       1.00000  
       6  aqu060                  60   17179.65000     -12.12822     -76.35809    4053.00000         6      s5037s79792w         0         0         0         2           sdc        82           tot       1.00000           aqu        14           rhg       1.00000  
       7  aqu070                  70    8588.16000     -12.07734     -76.54865    2406.00000         7      s5037s79792w         0         0         0         2           sdc        34           tot       1.00000           aqu        14           rhg       1.00000  
       8  aqu080                  80    4024.71000     -12.05348     -76.60094    1530.00000         8      s5037s79792w         0         0         0         2           sdc        31           tot       1.00000           aqu        14           rhg       1.00000  
       9  aqu090                  90    6762.06000     -12.10128     -76.37248    3777.00000         9      s5037s79792w         0         0         0         2           sdc        84           tot       1.00000           aqu        14           rhg       1.00000  
      10  aqu100                 100    1510.65000     -12.09138     -76.44527    2180.00000        10      s5037s79792w         0         0         0         2           sdc        78           tot       1.00000           aqu        14           rhg       1.00000  
      11  aqu110                 110    1519.11000     -12.09594     -76.50746    1767.00000        11      s5037s79792w         0         0         0         2           sdc        73           tot       1.00000           aqu        14           rhg       1.00000  
      12  aqu120                 120    3153.78000     -12.13986     -76.46548    2917.00000        12      s5037s79792w         0         0         0         2           sdc        76           tot       1.00000           aqu        14           rhg       1.00000  
      13  aqu130                 130    4541.31000     -12.14190     -76.50239    2890.00000        13      s5037s79792w         0         0         0         2           sdc        86           tot       1.00000           aqu        14           rhg       1.00000  
      14  aqu_deep001              1   95073.12000     -12.04404     -76.41060    3479.42179        14      s5037s79792w         0         0         0         0  
