channel-lte.cha: written by SWAT+ editor v3.0.4 on 2024-10-15 00:19 for SWAT+ rev.61.0.1
      id  name                       cha_ini           cha_hyd           cha_sed           cha_nut  
       1  cha001                    initcha1         hydcha001              null           nutcha1  
       2  cha002                    initcha1         hydcha002              null           nutcha1  
       3  cha003                    initcha1         hydcha003              null           nutcha1  
       4  cha004                    initcha1         hydcha004              null           nutcha1  
       5  cha005                    initcha1         hydcha005              null           nutcha1  
       6  cha006                    initcha1         hydcha006              null           nutcha1  
       7  cha007                    initcha1         hydcha007              null           nutcha1  
       8  cha008                    initcha1         hydcha008              null           nutcha1  
       9  cha009                    initcha1         hydcha009              null           nutcha1  
      10  cha010                    initcha1         hydcha010              null           nutcha1  
      11  cha011                    initcha1         hydcha011              null           nutcha1  
      12  cha012                    initcha1         hydcha012              null           nutcha1  
      13  cha013                    initcha1         hydcha013              null           nutcha1  
      14  cha014                    initcha1         hydcha014              null           nutcha1  
      15  cha015                    initcha1         hydcha015              null           nutcha1  
      16  cha016                    initcha1         hydcha016              null           nutcha1  
      17  cha017                    initcha1         hydcha017              null           nutcha1  
      18  cha018                    initcha1         hydcha018              null           nutcha1  
      19  cha019                    initcha1         hydcha019              null           nutcha1  
      20  cha020                    initcha1         hydcha020              null           nutcha1  
      21  cha021                    initcha1         hydcha021              null           nutcha1  
      22  cha022                    initcha1         hydcha022              null           nutcha1  
      23  cha023                    initcha1         hydcha023              null           nutcha1  
      24  cha024                    initcha1         hydcha024              null           nutcha1  
      25  cha025                    initcha1         hydcha025              null           nutcha1  
      26  cha026                    initcha1         hydcha026              null           nutcha1  
      27  cha027                    initcha1         hydcha027              null           nutcha1  
      28  cha028                    initcha1         hydcha028              null           nutcha1  
      29  cha029                    initcha1         hydcha029              null           nutcha1  
      30  cha030                    initcha1         hydcha030              null           nutcha1  
      31  cha031                    initcha1         hydcha031              null           nutcha1  
      32  cha032                    initcha1         hydcha032              null           nutcha1  
      33  cha033                    initcha1         hydcha033              null           nutcha1  
      34  cha034                    initcha1         hydcha034              null           nutcha1  
      35  cha035                    initcha1         hydcha035              null           nutcha1  
      36  cha036                    initcha1         hydcha036              null           nutcha1  
      37  cha037                    initcha1         hydcha037              null           nutcha1  
      38  cha038                    initcha1         hydcha038              null           nutcha1  
      39  cha039                    initcha1         hydcha039              null           nutcha1  
      40  cha040                    initcha1         hydcha040              null           nutcha1  
      41  cha041                    initcha1         hydcha041              null           nutcha1  
      42  cha042                    initcha1         hydcha042              null           nutcha1  
      43  cha043                    initcha1         hydcha043              null           nutcha1  
      44  cha044                    initcha1         hydcha044              null           nutcha1  
      45  cha045                    initcha1         hydcha045              null           nutcha1  
      46  cha046                    initcha1         hydcha046              null           nutcha1  
      47  cha047                    initcha1         hydcha047              null           nutcha1  
      48  cha048                    initcha1         hydcha048              null           nutcha1  
      49  cha049                    initcha1         hydcha049              null           nutcha1  
      50  cha050                    initcha1         hydcha050              null           nutcha1  
      51  cha051                    initcha1         hydcha051              null           nutcha1  
      52  cha052                    initcha1         hydcha052              null           nutcha1  
      53  cha053                    initcha1         hydcha053              null           nutcha1  
      54  cha054                    initcha1         hydcha054              null           nutcha1  
      55  cha055                    initcha1         hydcha055              null           nutcha1  
      56  cha056                    initcha1         hydcha056              null           nutcha1  
      57  cha057                    initcha1         hydcha057              null           nutcha1  
      58  cha058                    initcha1         hydcha058              null           nutcha1  
      59  cha059                    initcha1         hydcha059              null           nutcha1  
      60  cha060                    initcha1         hydcha060              null           nutcha1  
      61  cha061                    initcha1         hydcha061              null           nutcha1  
      62  cha062                    initcha1         hydcha062              null           nutcha1  
      63  cha063                    initcha1         hydcha063              null           nutcha1  
      64  cha064                    initcha1         hydcha064              null           nutcha1  
      65  cha065                    initcha1         hydcha065              null           nutcha1  
      66  cha066                    initcha1         hydcha066              null           nutcha1  
      67  cha067                    initcha1         hydcha067              null           nutcha1  
      68  cha068                    initcha1         hydcha068              null           nutcha1  
      69  cha069                    initcha1         hydcha069              null           nutcha1  
      70  cha070                    initcha1         hydcha070              null           nutcha1  
      71  cha071                    initcha1         hydcha071              null           nutcha1  
      72  cha072                    initcha1         hydcha072              null           nutcha1  
      73  cha073                    initcha1         hydcha073              null           nutcha1  
      74  cha074                    initcha1         hydcha074              null           nutcha1  
      75  cha075                    initcha1         hydcha075              null           nutcha1  
      76  cha076                    initcha1         hydcha076              null           nutcha1  
      77  cha077                    initcha1         hydcha077              null           nutcha1  
      78  cha078                    initcha1         hydcha078              null           nutcha1  
      79  cha079                    initcha1         hydcha079              null           nutcha1  
      80  cha080                    initcha1         hydcha080              null           nutcha1  
      81  cha081                    initcha1         hydcha081              null           nutcha1  
      82  cha082                    initcha1         hydcha082              null           nutcha1  
      83  cha083                    initcha1         hydcha083              null           nutcha1  
      84  cha084                    initcha1         hydcha084              null           nutcha1  
      85  cha085                    initcha1         hydcha085              null           nutcha1  
      86  cha086                    initcha1         hydcha086              null           nutcha1  
      87  cha087                    initcha1         hydcha087              null           nutcha1  
      88  cha088                    initcha1         hydcha088              null           nutcha1  
      89  cha089                    initcha1         hydcha089              null           nutcha1  
      90  cha090                    initcha1         hydcha090              null           nutcha1  
      91  cha091                    initcha1         hydcha091              null           nutcha1  
      92  cha092                    initcha1         hydcha092              null           nutcha1  
      93  cha093                    initcha1         hydcha093              null           nutcha1  
      94  cha094                    initcha1         hydcha094              null           nutcha1  
      95  cha095                    initcha1         hydcha095              null           nutcha1  
      96  cha096                    initcha1         hydcha096              null           nutcha1  
      97  cha097                    initcha1         hydcha097              null           nutcha1  
      98  cha098                    initcha1         hydcha098              null           nutcha1  
      99  cha099                    initcha1         hydcha099              null           nutcha1  
     100  cha100                    initcha1         hydcha100              null           nutcha1  
     101  cha101                    initcha1         hydcha101              null           nutcha1  
     102  cha102                    initcha1         hydcha102              null           nutcha1  
     103  cha103                    initcha1         hydcha103              null           nutcha1  
     104  cha104                    initcha1         hydcha104              null           nutcha1  
     105  cha105                    initcha1         hydcha105              null           nutcha1  
     106  cha106                    initcha1         hydcha106              null           nutcha1  
     107  cha107                    initcha1         hydcha107              null           nutcha1  
     108  cha108                    initcha1         hydcha108              null           nutcha1  
     109  cha109                    initcha1         hydcha109              null           nutcha1  
     110  cha110                    initcha1         hydcha110              null           nutcha1  
     111  cha111                    initcha1         hydcha111              null           nutcha1  
     112  cha112                    initcha1         hydcha112              null           nutcha1  
     113  cha113                    initcha1         hydcha113              null           nutcha1  
     114  cha114                    initcha1         hydcha114              null           nutcha1  
     115  cha115                    initcha1         hydcha115              null           nutcha1  
     116  cha116                    initcha1         hydcha116              null           nutcha1  
     117  cha117                    initcha1         hydcha117              null           nutcha1  
     118  cha118                    initcha1         hydcha118              null           nutcha1  
     119  cha119                    initcha1         hydcha119              null           nutcha1  
     120  cha120                    initcha1         hydcha120              null           nutcha1  
     121  cha121                    initcha1         hydcha121              null           nutcha1  
     122  cha122                    initcha1         hydcha122              null           nutcha1  
     123  cha123                    initcha1         hydcha123              null           nutcha1  
     124  cha124                    initcha1         hydcha124              null           nutcha1  
     125  cha125                    initcha1         hydcha125              null           nutcha1  
     126  cha126                    initcha1         hydcha126              null           nutcha1  
     127  cha127                    initcha1         hydcha127              null           nutcha1  
     128  cha128                    initcha1         hydcha128              null           nutcha1  
     129  cha129                    initcha1         hydcha129              null           nutcha1  
     130  cha130                    initcha1         hydcha130              null           nutcha1  
     131  cha131                    initcha1         hydcha131              null           nutcha1  
     132  cha132                    initcha1         hydcha132              null           nutcha1  
     133  cha133                    initcha1         hydcha133              null           nutcha1  
     134  cha134                    initcha1         hydcha134              null           nutcha1  
     135  cha135                    initcha1         hydcha135              null           nutcha1  
