chandeg.con: written by SWAT+ editor v3.0.4 on 2024-10-15 00:19 for SWAT+ rev.61.0.1
      id  name                gis_id          area           lat           lon          elev      lcha               wst       cst      ovfl      rule   out_tot       obj_typ    obj_id       hyd_typ          frac  
       1  cha001                   1    5315.04000     -11.92463     -76.32400             0         1      s5037s79792w         0         0         0         1           sdc        12           tot       1.00000  
       2  cha002                   2    4638.87000     -11.91274     -76.31348             0         2      s5037s79792w         0         0         0         1           sdc         1           tot       1.00000  
       3  cha003                   3    2507.13000     -11.89505     -76.29797             0         3      s5037s79792w         0         0         0         1           sdc         2           tot       1.00000  
       4  cha004                   4    1309.95000     -11.87246     -76.28588             0         4      s5037s79792w         0         0         0         1           sdc         3           tot       1.00000  
       5  cha005                   5     390.15000     -11.92371     -76.31821             0         5      s5037s79792w         0         0         0         1           sdc         1           tot       1.00000  
       6  cha006                   6     877.77000     -11.91469     -76.33318             0         6      s5037s79792w         0         0         0         1           sdc        12           tot       1.00000  
       7  cha007                   7     504.99000     -11.88888     -76.28362             0         7      s5037s79792w         0         0         0         1           sdc         3           tot       1.00000  
       8  cha008                   8    1112.76000     -11.88769     -76.30647             0         8      s5037s79792w         0         0         0         1           sdc         2           tot       1.00000  
       9  cha009                   9   12481.74000     -11.98327     -76.39743             0         9      s5037s79792w         0         0         0         1           sdc        38           tot       1.00000  
      10  cha010                  10   10663.02000     -11.96245     -76.38369             0        10      s5037s79792w         0         0         0         1           sdc         9           tot       1.00000  
      11  cha011                  11    7976.34000     -11.94604     -76.35661             0        11      s5037s79792w         0         0         0         1           sdc        10           tot       1.00000  
      12  cha012                  12    6814.88960     -11.93502     -76.33562             0        12      s5037s79792w         0         0         0         1           sdc        11           tot       1.00000  
      13  cha013                  13   12609.36000     -11.98327     -76.36823             0        13      s5037s79792w         0         0         0         1           sdc        38           tot       1.00000  
      14  cha014                  14   10375.64960     -11.97571     -76.33417             0        14      s5037s79792w         0         0         0         1           sdc        13           tot       1.00000  
      15  cha015                  15    8090.64000     -11.97050     -76.31651             0        15      s5037s79792w         0         0         0         1           sdc        14           tot       1.00000  
      16  cha016                  16    5358.24000     -11.95663     -76.29647             0        16      s5037s79792w         0         0         0         1           sdc        15           tot       1.00000  
      17  cha017                  17    1724.04000     -11.94705     -76.37066             0        17      s5037s79792w         0         0         0         1           sdc        10           tot       1.00000  
      18  cha018                  18    1819.71000     -11.98591     -76.32747             0        18      s5037s79792w         0         0         0         1           sdc        14           tot       1.00000  
      19  cha019                  19     734.76000     -11.99763     -76.31513             0        19      s5037s79792w         0         0         0         1           sdc        18           tot       1.00000  
      20  cha020                  20     472.68000     -12.00057     -76.32602             0        20      s5037s79792w         0         0         0         1           sdc        18           tot       1.00000  
      21  cha021                  21    1909.80000     -11.92812     -76.27265             0        21      s5037s79792w         0         0         0         1           sdc        16           tot       1.00000  
      22  cha022                  22    2860.29000     -11.93564     -76.25946             0        22      s5037s79792w         0         0         0         1           sdc        16           tot       1.00000  
      23  cha023                  23    1060.56000     -11.93283     -76.36770             0        23      s5037s79792w         0         0         0         1           sdc        17           tot       1.00000  
      24  cha024                  24    1318.86000     -11.97213     -76.40054             0        24      s5037s79792w         0         0         0         1           sdc         9           tot       1.00000  
      25  cha025                  25    1880.01000     -11.97119     -76.28442             0        25      s5037s79792w         0         0         0         1           sdc        15           tot       1.00000  
      26  cha026                  26     408.69000     -11.97081     -76.33855             0        26      s5037s79792w         0         0         0         1           sdc        13           tot       1.00000  
      27  cha027                  27     651.33000     -11.96571     -76.40960             0        27      s5037s79792w         0         0         0         1           sdc        24           tot       1.00000  
      28  cha028                  28     597.69000     -11.96113     -76.40379             0        28      s5037s79792w         0         0         0         1           sdc        24           tot       1.00000  
      29  cha029                  29     367.83000     -11.94353     -76.34172             0        29      s5037s79792w         0         0         0         1           sdc        11           tot       1.00000  
      30  cha030                  30     620.55000     -11.94051     -76.37862             0        30      s5037s79792w         0         0         0         1           sdc        17           tot       1.00000  
      31  cha031                  31   95072.58240     -12.03195     -76.62417             0        31      s5037s79792w         0         0         0         0  
      32  cha032                  32   94093.65120     -12.03407     -76.60765             0        32      s5037s79792w         0         0         0         1           sdc        31           tot       1.00000  
      33  cha033                  33   91943.55200     -12.04141     -76.58165             0        33      s5037s79792w         0         0         0         1           sdc        32           tot       1.00000  
      34  cha034                  34   87164.37120     -12.04690     -76.56943             0        34      s5037s79792w         0         0         0         1           sdc        33           tot       1.00000  
      35  cha035                  35   83715.39200     -12.05460     -76.55156             0        35      s5037s79792w         0         0         0         1           sdc        34           tot       1.00000  
      36  cha036                  36   29407.04960     -12.03705     -76.40901             0        36      s5037s79792w         0         0         0         1           sdc        81           tot       1.00000  
      37  cha037                  37   27330.84160     -12.01336     -76.39910             0        37      s5037s79792w         0         0         0         1           sdc        36           tot       1.00000  
      38  cha038                  38   25749.63040     -11.99805     -76.39764             0        38      s5037s79792w         0         0         0         1           sdc        37           tot       1.00000  
      39  cha039                  39    6289.29000     -12.04478     -76.48634             0        39      s5037s79792w         0         0         0         1           sdc        83           tot       1.00000  
      40  cha040                  40    3884.04000     -12.03526     -76.56564             0        40      s5037s79792w         0         0         0         1           sdc        33           tot       1.00000  
      41  cha041                  41    3407.76000     -12.02867     -76.48115             0        41      s5037s79792w         0         0         0         1           sdc        39           tot       1.00000  
      42  cha042                  42    2817.81000     -12.01716     -76.47764             0        42      s5037s79792w         0         0         0         1           sdc        41           tot       1.00000  
      43  cha043                  43    2891.52000     -12.01825     -76.55232             0        43      s5037s79792w         0         0         0         1           sdc        40           tot       1.00000  
      44  cha044                  44     978.66000     -12.04660     -76.62205             0        44      s5037s79792w         0         0         0         1           sdc        31           tot       1.00000  
      45  cha045                  45    3395.52000     -12.06642     -76.57092             0        45      s5037s79792w         0         0         0         1           sdc        34           tot       1.00000  
      46  cha046                  46    1051.20000     -12.05585     -76.59373             0        46      s5037s79792w         0         0         0         1           sdc        32           tot       1.00000  
      47  cha047                  47    1444.59000     -11.99225     -76.47103             0        47      s5037s79792w         0         0         0         1           sdc        42           tot       1.00000  
      48  cha048                  48    1176.21000     -11.99759     -76.45991             0        48      s5037s79792w         0         0         0         1           sdc        42           tot       1.00000  
      49  cha049                  49    1401.93000     -12.00193     -76.53734             0        49      s5037s79792w         0         0         0         1           sdc        43           tot       1.00000  
      50  cha050                  50     586.71000     -11.99999     -76.38953             0        50      s5037s79792w         0         0         0         1           sdc        37           tot       1.00000  
      51  cha051                  51    3527.55000     -12.05146     -76.40205             0        51      s5037s79792w         0         0         0         1           sdc        81           tot       1.00000  
      52  cha052                  52    1589.04000     -12.05265     -76.48624             0        52      s5037s79792w         0         0         0         1           sdc        83           tot       1.00000  
      53  cha053                  53    1056.24000     -12.02219     -76.39653             0        53      s5037s79792w         0         0         0         1           sdc        36           tot       1.00000  
      54  cha054                  54    2021.31000     -12.05024     -76.37311             0        54      s5037s79792w         0         0         0         1           sdc        51           tot       1.00000  
      55  cha055                  55    2154.24000     -12.02983     -76.46683             0        55      s5037s79792w         0         0         0         1           sdc        39           tot       1.00000  
      56  cha056                  56     391.68000     -12.05268     -76.47935             0        56      s5037s79792w         0         0         0         1           sdc        52           tot       1.00000  
      57  cha057                  57     604.53000     -12.05088     -76.35355             0        57      s5037s79792w         0         0         0         1           sdc        54           tot       1.00000  
      58  cha058                  58     835.29000     -12.05056     -76.47176             0        58      s5037s79792w         0         0         0         1           sdc        52           tot       1.00000  
      59  cha059                  59     436.41000     -12.04714     -76.52713             0        59      s5037s79792w         0         0         0         1           sdc        97           tot       1.00000  
      60  cha060                  60     764.01000     -12.04167     -76.35130             0        60      s5037s79792w         0         0         0         1           sdc        54           tot       1.00000  
      61  cha061                  61     654.30000     -12.03928     -76.52585             0        61      s5037s79792w         0         0         0         1           sdc        97           tot       1.00000  
      62  cha062                  62     372.42000     -12.02371     -76.39103             0        62      s5037s79792w         0         0         0         1           sdc        53           tot       1.00000  
      63  cha063                  63     897.57000     -12.03750     -76.37236             0        63      s5037s79792w         0         0         0         1           sdc        51           tot       1.00000  
      64  cha064                  64     355.05000     -12.02258     -76.47988             0        64      s5037s79792w         0         0         0         1           sdc        41           tot       1.00000  
      65  cha065                  65     673.83000     -12.02209     -76.44282             0        65      s5037s79792w         0         0         0         1           sdc        55           tot       1.00000  
      66  cha066                  66     639.00000     -12.02063     -76.38274             0        66      s5037s79792w         0         0         0         1           sdc        53           tot       1.00000  
      67  cha067                  67     449.19000     -12.01929     -76.56045             0        67      s5037s79792w         0         0         0         1           sdc        40           tot       1.00000  
      68  cha068                  68     835.47000     -12.01760     -76.44638             0        68      s5037s79792w         0         0         0         1           sdc        55           tot       1.00000  
      69  cha069                  69    1057.86000     -12.01117     -76.53285             0        69      s5037s79792w         0         0         0         1           sdc        43           tot       1.00000  
      70  cha070                  70   82316.07040     -12.06255     -76.53521             0        70      s5037s79792w         0         0         0         1           sdc        35           tot       1.00000  
      71  cha071                  71   80665.20320     -12.06666     -76.52793             0        71      s5037s79792w         0         0         0         1           sdc        70           tot       1.00000  
      72  cha072                  72   78777.63200     -12.07308     -76.51915             0        72      s5037s79792w         0         0         0         1           sdc        71           tot       1.00000  
      73  cha073                  73   69698.88000     -12.07989     -76.51395             0        73      s5037s79792w         0         0         0         1           sdc        72           tot       1.00000  
      74  cha074                  74   69251.94240     -12.08480     -76.50819             0        74      s5037s79792w         0         0         0         1           sdc        73           tot       1.00000  
      75  cha075                  75   68689.08160     -12.08961     -76.49761             0        75      s5037s79792w         0         0         0         1           sdc        74           tot       1.00000  
      76  cha076                  76   63638.45760     -12.09812     -76.47905             0        76      s5037s79792w         0         0         0         1           sdc        75           tot       1.00000  
      77  cha077                  77   60555.23840     -12.10307     -76.46516             0        77      s5037s79792w         0         0         0         1           sdc        76           tot       1.00000  
      78  cha078                  78   43305.03040     -12.09815     -76.44694             0        78      s5037s79792w         0         0         0         1           sdc        77           tot       1.00000  
      79  cha079                  79   35032.32000     -12.08415     -76.42661             0        79      s5037s79792w         0         0         0         1           sdc        78           tot       1.00000  
      80  cha080                  80   34220.96960     -12.06898     -76.42240             0        80      s5037s79792w         0         0         0         1           sdc        79           tot       1.00000  
      81  cha081                  81   33181.20000     -12.05747     -76.42027             0        81      s5037s79792w         0         0         0         1           sdc        80           tot       1.00000  
      82  cha082                  82   17179.64960     -12.11401     -76.44758             0        82      s5037s79792w         0         0         0         1           sdc        77           tot       1.00000  
      83  cha083                  83    8877.32960     -12.06544     -76.50340             0        83      s5037s79792w         0         0         0         1           sdc        72           tot       1.00000  
      84  cha084                  84    6762.06000     -12.09179     -76.41783             0        84      s5037s79792w         0         0         0         1           sdc        78           tot       1.00000  
      85  cha085                  85    4485.06000     -12.09897     -76.30790             0        85      s5037s79792w         0         0         0         1           sdc       124           tot       1.00000  
      86  cha086                  86    4541.31000     -12.09696     -76.49310             0        86      s5037s79792w         0         0         0         1           sdc        75           tot       1.00000  
      87  cha087                  87    3580.11000     -12.10750     -76.49853             0        87      s5037s79792w         0         0         0         1           sdc        86           tot       1.00000  
      88  cha088                  88    2921.67000     -12.07413     -76.31302             0        88      s5037s79792w         0         0         0         1           sdc        85           tot       1.00000  
      89  cha089                  89    2979.36000     -12.10573     -76.39669             0        89      s5037s79792w         0         0         0         1           sdc        84           tot       1.00000  
      90  cha090                  90    2422.35000     -12.13562     -76.46451             0        90      s5037s79792w         0         0         0         1           sdc        76           tot       1.00000  
      91  cha091                  91    1967.04000     -12.12825     -76.49906             0        91      s5037s79792w         0         0         0         1           sdc        87           tot       1.00000  
      92  cha092                  92     655.20000     -12.12224     -76.37610             0        92      s5037s79792w         0         0         0         1           sdc        89           tot       1.00000  
      93  cha093                  93    1264.86000     -12.12682     -76.51270             0        93      s5037s79792w         0         0         0         1           sdc        87           tot       1.00000  
      94  cha094                  94    1119.60000     -12.13060     -76.38607             0        94      s5037s79792w         0         0         0         1           sdc        89           tot       1.00000  
      95  cha095                  95     908.37000     -12.11582     -76.49059             0        95      s5037s79792w         0         0         0         1           sdc        86           tot       1.00000  
      96  cha096                  96    1557.54000     -12.04323     -76.30860             0        96      s5037s79792w         0         0         0         1           sdc        88           tot       1.00000  
      97  cha097                  97    1621.17000     -12.05539     -76.53145             0        97      s5037s79792w         0         0         0         1           sdc        70           tot       1.00000  
      98  cha098                  98     493.65000     -12.05651     -76.31142             0        98      s5037s79792w         0         0         0         1           sdc        88           tot       1.00000  
      99  cha099                  99     654.39000     -12.05919     -76.42869             0        99      s5037s79792w         0         0         0         1           sdc        80           tot       1.00000  
     100  cha100                 100    3221.82000     -12.09024     -76.40308             0       100      s5037s79792w         0         0         0         1           sdc        84           tot       1.00000  
     101  cha101                 101    2490.66000     -12.09180     -76.38821             0       101      s5037s79792w         0         0         0         1           sdc       100           tot       1.00000  
     102  cha102                 102    1788.39000     -12.09379     -76.57507             0       102      s5037s79792w         0         0         0         1           sdc        45           tot       1.00000  
     103  cha103                 103     943.29000     -12.08380     -76.30535             0       103      s5037s79792w         0         0         0         1           sdc        85           tot       1.00000  
     104  cha104                 104     616.05000     -12.10761     -76.57639             0       104      s5037s79792w         0         0         0         1           sdc       102           tot       1.00000  
     105  cha105                 105     656.82000     -12.10709     -76.57391             0       105      s5037s79792w         0         0         0         1           sdc       102           tot       1.00000  
     106  cha106                 106    1420.83000     -12.08930     -76.52916             0       106      s5037s79792w         0         0         0         1           sdc        71           tot       1.00000  
     107  cha107                 107     479.25000     -12.10695     -76.31345             0       107      s5037s79792w         0         0         0         1           sdc       124           tot       1.00000  
     108  cha108                 108     496.44000     -12.09240     -76.50754             0       108      s5037s79792w         0         0         0         1           sdc        74           tot       1.00000  
     109  cha109                 109    1145.16000     -12.09410     -76.36245             0       109      s5037s79792w         0         0         0         1           sdc       101           tot       1.00000  
     110  cha110                 110     390.06000     -12.08714     -76.57669             0       110      s5037s79792w         0         0         0         1           sdc        45           tot       1.00000  
     111  cha111                 111     356.13000     -12.08438     -76.51122             0       111      s5037s79792w         0         0         0         1           sdc        73           tot       1.00000  
     112  cha112                 112     404.37000     -12.07907     -76.30023             0       112      s5037s79792w         0         0         0         1           sdc       103           tot       1.00000  
     113  cha113                 113     379.80000     -12.07537     -76.42064             0       113      s5037s79792w         0         0         0         1           sdc        79           tot       1.00000  
     114  cha114                 114     740.25000     -12.08461     -76.36268             0       114      s5037s79792w         0         0         0         1           sdc       101           tot       1.00000  
     115  cha115                 115     717.21000     -12.08173     -76.39491             0       115      s5037s79792w         0         0         0         1           sdc       100           tot       1.00000  
     116  cha116                 116     439.11000     -12.07609     -76.30063             0       116      s5037s79792w         0         0         0         1           sdc       103           tot       1.00000  
     117  cha117                 117     387.09000     -12.06593     -76.53771             0       117      s5037s79792w         0         0         0         1           sdc        35           tot       1.00000  
     118  cha118                 118   15616.52960     -12.13105     -76.43031             0       118      s5037s79792w         0         0         0         1           sdc        82           tot       1.00000  
     119  cha119                 119   14563.98080     -12.14300     -76.42706             0       119      s5037s79792w         0         0         0         1           sdc       118           tot       1.00000  
     120  cha120                 120   13403.52000     -12.15683     -76.40205             0       120      s5037s79792w         0         0         0         1           sdc       119           tot       1.00000  
     121  cha121                 121   10193.12960     -12.16689     -76.37054             0       121      s5037s79792w         0         0         0         1           sdc       120           tot       1.00000  
     122  cha122                 122    7912.35040     -12.15911     -76.35175             0       122      s5037s79792w         0         0         0         1           sdc       121           tot       1.00000  
     123  cha123                 123    6874.74000     -12.14548     -76.33942             0       123      s5037s79792w         0         0         0         1           sdc       122           tot       1.00000  
     124  cha124                 124    6270.66000     -12.12548     -76.32278             0       124      s5037s79792w         0         0         0         1           sdc       123           tot       1.00000  
     125  cha125                 125     475.65000     -12.12253     -76.42599             0       125      s5037s79792w         0         0         0         1           sdc        82           tot       1.00000  
     126  cha126                 126    1288.26000     -12.16874     -76.37854             0       126      s5037s79792w         0         0         0         1           sdc       120           tot       1.00000  
     127  cha127                 127    1817.73000     -12.17609     -76.34605             0       127      s5037s79792w         0         0         0         1           sdc       121           tot       1.00000  
     128  cha128                 128     590.76000     -12.17754     -76.38272             0       128      s5037s79792w         0         0         0         1           sdc       126           tot       1.00000  
     129  cha129                 129     530.28000     -12.17661     -76.37886             0       129      s5037s79792w         0         0         0         1           sdc       126           tot       1.00000  
     130  cha130                 130     784.71000     -12.16171     -76.42937             0       130      s5037s79792w         0         0         0         1           sdc       119           tot       1.00000  
     131  cha131                 131    1064.97000     -12.15361     -76.49783             0       131      s5037s79792w         0         0         0         1           sdc        91           tot       1.00000  
     132  cha132                 132     605.79000     -12.15281     -76.33615             0       132      s5037s79792w         0         0         0         1           sdc       122           tot       1.00000  
     133  cha133                 133     424.44000     -12.14496     -76.49364             0       133      s5037s79792w         0         0         0         1           sdc        91           tot       1.00000  
     134  cha134                 134     547.29000     -12.13722     -76.41849             0       134      s5037s79792w         0         0         0         1           sdc       118           tot       1.00000  
     135  cha135                 135     481.32000     -12.13761     -76.33965             0       135      s5037s79792w         0         0         0         1           sdc       123           tot       1.00000  
