field.fld: written by SWAT+ editor v3.0.4 on 2024-10-15 00:19 for SWAT+ rev.61.0.1
name                       len            wd           ang  
fld0010              500.00000     100.00000      30.00000  
fld0020              500.00000     100.00000      30.00000  
fld0030              500.00000     100.00000      30.00000  
fld0040              500.00000     100.00000      30.00000  
fld0050              500.00000     100.00000      30.00000  
fld0060              500.00000     100.00000      30.00000  
fld0070              500.00000     100.00000      30.00000  
fld0080              500.00000     100.00000      30.00000  
fld0090              500.00000     100.00000      30.00000  
fld0100              500.00000     100.00000      30.00000  
fld0110              500.00000     100.00000      30.00000  
fld0120              500.00000     100.00000      30.00000  
fld0130              500.00000     100.00000      30.00000  
fld0140              500.00000     100.00000      30.00000  
fld0150              500.00000     100.00000      30.00000  
fld0160              500.00000     100.00000      30.00000  
fld0170              500.00000     100.00000      30.00000  
fld0180              500.00000     100.00000      30.00000  
fld0190              500.00000     100.00000      30.00000  
fld0200              500.00000     100.00000      30.00000  
fld0210              500.00000     100.00000      30.00000  
fld0220              500.00000     100.00000      30.00000  
fld0230              500.00000     100.00000      30.00000  
fld0240              500.00000     100.00000      30.00000  
fld0250              500.00000     100.00000      30.00000  
fld0260              500.00000     100.00000      30.00000  
fld0270              500.00000     100.00000      30.00000  
fld0280              500.00000     100.00000      30.00000  
fld0290              500.00000     100.00000      30.00000  
fld0300              500.00000     100.00000      30.00000  
fld0310              500.00000     100.00000      30.00000  
fld0320              500.00000     100.00000      30.00000  
fld0330              500.00000     100.00000      30.00000  
fld0340              500.00000     100.00000      30.00000  
fld0350              500.00000     100.00000      30.00000  
fld0360              500.00000     100.00000      30.00000  
fld0370              500.00000     100.00000      30.00000  
fld0380              500.00000     100.00000      30.00000  
fld0390              500.00000     100.00000      30.00000  
fld0400              500.00000     100.00000      30.00000  
fld0410              500.00000     100.00000      30.00000  
fld0420              500.00000     100.00000      30.00000  
fld0430              500.00000     100.00000      30.00000  
fld0440              500.00000     100.00000      30.00000  
fld0450              500.00000     100.00000      30.00000  
fld0460              500.00000     100.00000      30.00000  
fld0470              500.00000     100.00000      30.00000  
fld0480              500.00000     100.00000      30.00000  
fld0490              500.00000     100.00000      30.00000  
fld0500              500.00000     100.00000      30.00000  
fld0510              500.00000     100.00000      30.00000  
fld0520              500.00000     100.00000      30.00000  
fld0530              500.00000     100.00000      30.00000  
fld0540              500.00000     100.00000      30.00000  
fld0550              500.00000     100.00000      30.00000  
fld0560              500.00000     100.00000      30.00000  
fld0570              500.00000     100.00000      30.00000  
fld0580              500.00000     100.00000      30.00000  
fld0590              500.00000     100.00000      30.00000  
fld0600              500.00000     100.00000      30.00000  
fld0610              500.00000     100.00000      30.00000  
fld0620              500.00000     100.00000      30.00000  
fld0630              500.00000     100.00000      30.00000  
fld0640              500.00000     100.00000      30.00000  
fld0650              500.00000     100.00000      30.00000  
fld0660              500.00000     100.00000      30.00000  
fld0670              500.00000     100.00000      30.00000  
fld0680              500.00000     100.00000      30.00000  
fld0690              500.00000     100.00000      30.00000  
fld0700              500.00000     100.00000      30.00000  
fld0710              500.00000     100.00000      30.00000  
fld0720              500.00000     100.00000      30.00000  
fld0730              500.00000     100.00000      30.00000  
fld0740              500.00000     100.00000      30.00000  
fld0750              500.00000     100.00000      30.00000  
fld0760              500.00000     100.00000      30.00000  
fld0770              500.00000     100.00000      30.00000  
fld0780              500.00000     100.00000      30.00000  
fld0790              500.00000     100.00000      30.00000  
fld0800              500.00000     100.00000      30.00000  
fld0810              500.00000     100.00000      30.00000  
fld0820              500.00000     100.00000      30.00000  
fld0830              500.00000     100.00000      30.00000  
fld0840              500.00000     100.00000      30.00000  
fld0850              500.00000     100.00000      30.00000  
fld0860              500.00000     100.00000      30.00000  
fld0870              500.00000     100.00000      30.00000  
fld0880              500.00000     100.00000      30.00000  
fld0890              500.00000     100.00000      30.00000  
fld0900              500.00000     100.00000      30.00000  
fld0910              500.00000     100.00000      30.00000  
fld0920              500.00000     100.00000      30.00000  
fld0930              500.00000     100.00000      30.00000  
fld0940              500.00000     100.00000      30.00000  
fld0950              500.00000     100.00000      30.00000  
fld0960              500.00000     100.00000      30.00000  
fld0970              500.00000     100.00000      30.00000  
fld0980              500.00000     100.00000      30.00000  
fld0990              500.00000     100.00000      30.00000  
fld1000              500.00000     100.00000      30.00000  
fld1010              500.00000     100.00000      30.00000  
fld1020              500.00000     100.00000      30.00000  
fld1030              500.00000     100.00000      30.00000  
fld1040              500.00000     100.00000      30.00000  
fld1050              500.00000     100.00000      30.00000  
fld1060              500.00000     100.00000      30.00000  
fld1070              500.00000     100.00000      30.00000  
fld1080              500.00000     100.00000      30.00000  
fld1090              500.00000     100.00000      30.00000  
fld1100              500.00000     100.00000      30.00000  
fld1110              500.00000     100.00000      30.00000  
fld1120              500.00000     100.00000      30.00000  
fld1130              500.00000     100.00000      30.00000  
fld1140              500.00000     100.00000      30.00000  
fld1150              500.00000     100.00000      30.00000  
fld1160              500.00000     100.00000      30.00000  
fld1170              500.00000     100.00000      30.00000  
fld1180              500.00000     100.00000      30.00000  
fld1190              500.00000     100.00000      30.00000  
fld1200              500.00000     100.00000      30.00000  
fld1210              500.00000     100.00000      30.00000  
fld1220              500.00000     100.00000      30.00000  
fld1230              500.00000     100.00000      30.00000  
fld1240              500.00000     100.00000      30.00000  
fld1250              500.00000     100.00000      30.00000  
fld1260              500.00000     100.00000      30.00000  
fld1270              500.00000     100.00000      30.00000  
fld1280              500.00000     100.00000      30.00000  
fld1290              500.00000     100.00000      30.00000  
fld1300              500.00000     100.00000      30.00000  
fld1310              500.00000     100.00000      30.00000  
fld1320              500.00000     100.00000      30.00000  
fld1330              500.00000     100.00000      30.00000  
fld1340              500.00000     100.00000      30.00000  
fld1350              500.00000     100.00000      30.00000  
