hru.con: written by SWAT+ editor v3.0.4 on 2024-10-15 00:19 for SWAT+ rev.61.0.1
      id  name                gis_id          area           lat           lon          elev       hru               wst       cst      ovfl      rule   out_tot  
       1  hru001                   1    1309.95000     -11.86663     -76.28152    4742.84740         1      s5037s79792w         0         0         0         0  
       2  hru002                   2     510.27429     -11.86191     -76.30670    4783.44124         2      s5037s79792w         0         0         0         0  
       3  hru003                   3     602.48571     -11.88490     -76.31106    4597.49577         3      s5037s79792w         0         0         0         0  
       4  hru004                   4     172.01698     -11.92715     -76.38969    4446.03228         4      s5037s79792w         0         0         0         0  
       5  hru005                   5     163.09390     -11.92972     -76.38916    4424.63708         5      s5037s79792w         0         0         0         0  
       6  hru006                   6     285.43912     -11.93699     -76.38403    4265.10837         6      s5037s79792w         0         0         0         0  
       7  hru007                   7     504.99000     -11.89269     -76.27387    4808.36899         7      s5037s79792w         0         0         0         0  
       8  hru008                   8     271.29403     -11.94624     -76.32886    4380.76812         8      s5037s79792w         0         0         0         0  
       9  hru009                   9      96.53597     -11.94416     -76.32082    4510.40836         9      s5037s79792w         0         0         0         0  
      10  hru010                  10     410.50775     -11.90399     -76.33538    4551.42029        10      s5037s79792w         0         0         0         0  
      11  hru011                  11     237.28315     -11.89995     -76.33679    4570.73669        11      s5037s79792w         0         0         0         0  
      12  hru012                  12     229.97910     -11.89846     -76.33720    4569.47597        12      s5037s79792w         0         0         0         0  
      13  hru013                  13     109.64747     -11.94403     -76.40353    4277.29303        13      s5037s79792w         0         0         0         0  
      14  hru014                  14     488.04253     -11.95043     -76.40443    4160.79159        14      s5037s79792w         0         0         0         0  
      15  hru015                  15     143.38862     -11.95521     -76.42355    4393.68676        15      s5037s79792w         0         0         0         0  
      16  hru016                  16     507.94138     -11.96042     -76.41824    4167.29385        16      s5037s79792w         0         0         0         0  
      17  hru017                  17     216.46490     -11.92143     -76.36810    4319.89098        17      s5037s79792w         0         0         0         0  
      18  hru018                  18     844.09510     -11.92347     -76.36790    4305.07704        18      s5037s79792w         0         0         0         0  
      19  hru019                  19     106.27220     -11.93400     -76.30825    4614.86758        19      s5037s79792w         0         0         0         0  
      20  hru020                  20     187.79608     -11.93032     -76.30964    4551.33075        20      s5037s79792w         0         0         0         0  
      21  hru021                  21      96.08172     -11.93524     -76.30747    4625.58283        21      s5037s79792w         0         0         0         0  
      22  hru022                  22     131.24389     -11.89374     -76.29429    4599.98107        22      s5037s79792w         0         0         0         0  
      23  hru023                  23     560.94611     -11.89641     -76.29296    4615.47834        23      s5037s79792w         0         0         0         0  
      24  hru024                  24     216.66645     -11.90866     -76.31038    4572.39634        24      s5037s79792w         0         0         0         0  
      25  hru025                  25     802.31355     -11.91336     -76.30642    4532.44909        25      s5037s79792w         0         0         0         0  
      26  hru026                  26     223.89801     -11.91882     -76.32473    4360.59093        26      s5037s79792w         0         0         0         0  
      27  hru027                  27      62.12199     -11.91288     -76.32525    4494.46795        27      s5037s79792w         0         0         0         0  
      28  hru028                  28     622.08000     -11.93059     -76.33686    4274.24691        28      s5037s79792w         0         0         0         0  
      29  hru029                  29      69.84000     -11.97072     -76.40171    3571.29485        29      s5037s79792w         0         0         0         0  
      30  hru030                  30      42.93000     -11.94634     -76.37538    3934.82804        30      s5037s79792w         0         0         0         0  
      31  hru031                  31     561.76579     -11.94165     -76.34986    4124.73082        31      s5037s79792w         0         0         0         0  
      32  hru032                  32     231.85421     -11.94556     -76.36273    3919.08098        32      s5037s79792w         0         0         0         0  
      33  hru033                  33     580.61753     -11.95735     -76.38661    3891.89777        33      s5037s79792w         0         0         0         0  
      34  hru034                  34     382.02247     -11.96361     -76.37964    3723.26707        34      s5037s79792w         0         0         0         0  
      35  hru035                  35     499.86000     -11.97766     -76.40939    3732.97395        35      s5037s79792w         0         0         0         0  
      36  hru036                  36     153.53647     -11.99419     -76.30412    4566.41798        36      s5037s79792w         0         0         0         0  
      37  hru037                  37     114.54549     -11.99941     -76.30629    4448.73377        37      s5037s79792w         0         0         0         0  
      38  hru038                  38     133.20654     -11.99320     -76.31171    4470.42141        38      s5037s79792w         0         0         0         0  
      39  hru039                  39     333.47150     -12.00359     -76.30732    4540.65150        39      s5037s79792w         0         0         0         0  
      40  hru040                  40     362.00059     -12.00969     -76.32156    4476.00324        40      s5037s79792w         0         0         0         0  
      41  hru041                  41     110.67941     -12.01231     -76.32097    4511.21773        41      s5037s79792w         0         0         0         0  
      42  hru042                  42    1909.80000     -11.91833     -76.26893    4668.31511        42      s5037s79792w         0         0         0         0  
      43  hru043                  43     408.69000     -11.95911     -76.33185    4256.65112        43      s5037s79792w         0         0         0         0  
      44  hru044                  44    2860.29000     -11.93827     -76.24863    4665.79611        44      s5037s79792w         0         0         0         0  
      45  hru045                  45    1196.47104     -11.97285     -76.28079    4468.36472        45      s5037s79792w         0         0         0         0  
      46  hru046                  46     683.53896     -11.98077     -76.27235    4612.42337        46      s5037s79792w         0         0         0         0  
      47  hru047                  47     453.37022     -11.98805     -76.32227    4158.73930        47      s5037s79792w         0         0         0         0  
      48  hru048                  48     158.89978     -12.00282     -76.33416    4377.43071        48      s5037s79792w         0         0         0         0  
      49  hru049                  49     588.15000     -11.95180     -76.29894    4323.87166        49      s5037s79792w         0         0         0         0  
      50  hru050                  50     852.39000     -11.97144     -76.31338    4188.06632        50      s5037s79792w         0         0         0         0  
      51  hru051                  51     465.30000     -11.98222     -76.33635    4027.91262        51      s5037s79792w         0         0         0         0  
      52  hru052                  52     699.74190     -11.97517     -76.34986    3906.53306        52      s5037s79792w         0         0         0         0  
      53  hru053                  53     814.55807     -11.98205     -76.37281    3615.95029        53      s5037s79792w         0         0         0         0  
      54  hru054                  54     310.72003     -11.97599     -76.37477    3703.10599        54      s5037s79792w         0         0         0         0  
      55  hru055                  55     219.92032     -12.00250     -76.44087    3741.63194        55      s5037s79792w         0         0         0         0  
      56  hru056                  56     157.43758     -12.00407     -76.44083    3702.26097        56      s5037s79792w         0         0         0         0  
      57  hru057                  57     458.11211     -12.00038     -76.44054    3806.47344        57      s5037s79792w         0         0         0         0  
      58  hru058                  58     288.24334     -11.97799     -76.46451    4034.74253        58      s5037s79792w         0         0         0         0  
      59  hru059                  59    1156.34666     -11.98591     -76.47263    3804.29031        59      s5037s79792w         0         0         0         0  
      60  hru060                  60     195.33549     -12.01441     -76.43586    3625.92356        60      s5037s79792w         0         0         0         0  
      61  hru061                  61     272.65117     -12.01452     -76.43190    3656.58945        61      s5037s79792w         0         0         0         0  
      62  hru062                  62     205.84334     -12.01564     -76.43351    3630.11607        62      s5037s79792w         0         0         0         0  
      63  hru063                  63     253.36221     -11.98806     -76.44951    3937.02453        63      s5037s79792w         0         0         0         0  
      64  hru064                  64     922.84779     -11.98814     -76.45130    3922.48089        64      s5037s79792w         0         0         0         0  
      65  hru065                  65      62.61013     -12.00173     -76.49085    3655.04348        65      s5037s79792w         0         0         0         0  
      66  hru066                  66     292.43987     -12.00585     -76.48846    3453.50066        66      s5037s79792w         0         0         0         0  
      67  hru067                  67     835.29000     -12.04600     -76.46080    2928.85082        67      s5037s79792w         0         0         0         0  
      68  hru068                  68     391.68000     -12.05993     -76.46345    2846.01247        68      s5037s79792w         0         0         0         0  
      69  hru069                  69     644.94000     -12.02768     -76.46432    2993.32782        69      s5037s79792w         0         0         0         0  
      70  hru070                  70     362.07000     -12.06653     -76.47147    2653.62482        70      s5037s79792w         0         0         0         0  
      71  hru071                  71     197.01000     -12.01597     -76.47398    2965.84272        71      s5037s79792w         0         0         0         0  
      72  hru072                  72     234.90000     -12.02412     -76.48525    2725.50780        72      s5037s79792w         0         0         0         0  
      73  hru073                  73     727.29000     -12.03775     -76.49244    2573.14649        73      s5037s79792w         0         0         0         0  
      74  hru074                  74     999.00000     -12.06701     -76.49453    2141.11137        74      s5037s79792w         0         0         0         0  
      75  hru075                  75     177.49128     -12.00531     -76.50879    3304.04443        75      s5037s79792w         0         0         0         0  
      76  hru076                  76     880.36872     -12.00806     -76.51774    2994.54802        76      s5037s79792w         0         0         0         0  
      77  hru077                  77     449.19000     -12.00884     -76.56235    2250.71878        77      s5037s79792w         0         0         0         0  
      78  hru078                  78    1401.93000     -11.99129     -76.52455    2952.70061        78      s5037s79792w         0         0         0         0  
      79  hru079                  79     356.11190     -12.01887     -76.54682    2090.16884        79      s5037s79792w         0         0         0         0  
      80  hru080                  80      75.61810     -12.01885     -76.55618    1876.46223        80      s5037s79792w         0         0         0         0  
      81  hru081                  81     543.33000     -12.03092     -76.56462    1764.85263        81      s5037s79792w         0         0         0         0  
      82  hru082                  82     453.77332     -12.01892     -76.37388    3842.52175        82      s5037s79792w         0         0         0         0  
      83  hru083                  83     185.22668     -12.01363     -76.36659    4135.28927        83      s5037s79792w         0         0         0         0  
      84  hru084                  84      61.05041     -12.06942     -76.39954    3533.80952        84      s5037s79792w         0         0         0         0  
      85  hru085                  85     249.18535     -12.07303     -76.40624    3258.82292        85      s5037s79792w         0         0         0         0  
      86  hru086                  86      69.56424     -12.07807     -76.40366    3309.01493        86      s5037s79792w         0         0         0         0  
      87  hru087                  87     375.81943     -12.02175     -76.34975    4450.32234        87      s5037s79792w         0         0         0         0  
      88  hru088                  88     521.75057     -12.03857     -76.37144    3834.51255        88      s5037s79792w         0         0         0         0  
      89  hru089                  89     144.27500     -11.99852     -76.38263    3603.05277        89      s5037s79792w         0         0         0         0  
      90  hru090                  90     442.43500     -12.00057     -76.37496    3910.27870        90      s5037s79792w         0         0         0         0  
      91  hru091                  91     315.92377     -12.03050     -76.37971    3686.08080        91      s5037s79792w         0         0         0         0  
      92  hru092                  92      56.49623     -12.03265     -76.38301    3600.76007        92      s5037s79792w         0         0         0         0  
      93  hru093                  93     156.86741     -12.02925     -76.33666    4482.75196        93      s5037s79792w         0         0         0         0  
      94  hru094                  94     607.14259     -12.03413     -76.34237    4392.42847        94      s5037s79792w         0         0         0         0  
      95  hru095                  95     447.28169     -12.05194     -76.34265    4394.56580        95      s5037s79792w         0         0         0         0  
      96  hru096                  96     157.24831     -12.05198     -76.33834    4466.99117        96      s5037s79792w         0         0         0         0  
      97  hru097                  97     148.66069     -12.04325     -76.43529    3415.04539        97      s5037s79792w         0         0         0         0  
      98  hru098                  98     505.72931     -12.05241     -76.43601    3267.25888        98      s5037s79792w         0         0         0         0  
      99  hru099                  99     277.82880     -11.98747     -76.41638    3832.46658        99      s5037s79792w         0         0         0         0  
     100  hru100                 100     380.70120     -11.99621     -76.40309    3273.92073       100      s5037s79792w         0         0         0         0  
     101  hru101                 101     452.01872     -12.05251     -76.37068    3708.94211       101      s5037s79792w         0         0         0         0  
     102  hru102                 102     200.75128     -12.06020     -76.36365    4176.03523       102      s5037s79792w         0         0         0         0  
     103  hru103                 103      44.82000     -12.02299     -76.39455    3084.21719       103      s5037s79792w         0         0         0         0  
     104  hru104                 104     608.67000     -12.05145     -76.39905    3191.27342       104      s5037s79792w         0         0         0         0  
     105  hru105                 105     245.55439     -12.06784     -76.41551    2906.84753       105      s5037s79792w         0         0         0         0  
     106  hru106                 106     139.82561     -12.06841     -76.43015    2911.33811       106      s5037s79792w         0         0         0         0  
     107  hru107                 107     319.41889     -12.08086     -76.43154    2593.68303       107      s5037s79792w         0         0         0         0  
     108  hru108                 108     112.13111     -12.08162     -76.42039    2600.22440       108      s5037s79792w         0         0         0         0  
     109  hru109                 109     994.50000     -12.01274     -76.39955    3418.33241       109      s5037s79792w         0         0         0         0  
     110  hru110                 110    1019.97000     -12.03512     -76.41011    3150.68771       110      s5037s79792w         0         0         0         0  
     111  hru111                 111     195.12986     -12.05465     -76.42246    2853.04827       111      s5037s79792w         0         0         0         0  
     112  hru112                 112      51.47014     -12.06109     -76.41495    2978.47505       112      s5037s79792w         0         0         0         0  
     113  hru113                 113     117.35542     -12.06193     -76.29063    4513.31501       113      s5037s79792w         0         0         0         0  
     114  hru114                 114     126.77663     -12.06335     -76.29225    4514.14459       114      s5037s79792w         0         0         0         0  
     115  hru115                 115     194.97795     -12.06440     -76.29295    4524.39496       115      s5037s79792w         0         0         0         0  
     116  hru116                 116     287.16791     -12.12657     -76.34060    4165.77849       116      s5037s79792w         0         0         0         0  
     117  hru117                 117      78.49748     -12.11786     -76.33813    4374.21003       117      s5037s79792w         0         0         0         0  
     118  hru118                 118     115.65460     -12.12482     -76.33969    4217.49149       118      s5037s79792w         0         0         0         0  
     119  hru119                 119     167.92475     -12.14125     -76.40310    3326.60705       119      s5037s79792w         0         0         0         0  
     120  hru120                 120     168.25359     -12.13942     -76.40313    3314.61954       120      s5037s79792w         0         0         0         0  
     121  hru121                 121     211.11166     -12.13902     -76.40919    3200.95067       121      s5037s79792w         0         0         0         0  
     122  hru122                 122      70.88449     -12.07453     -76.29059    4469.66216       122      s5037s79792w         0         0         0         0  
     123  hru123                 123     128.35840     -12.07429     -76.28693    4490.48614       123      s5037s79792w         0         0         0         0  
     124  hru124                 124     205.12712     -12.07180     -76.28444    4508.59106       124      s5037s79792w         0         0         0         0  
     125  hru125                 125     105.16068     -12.15171     -76.32224    4125.61439       125      s5037s79792w         0         0         0         0  
     126  hru126                 126     204.86491     -12.15059     -76.32305    4113.38378       126      s5037s79792w         0         0         0         0  
     127  hru127                 127      97.72007     -12.15428     -76.32961    4046.09645       127      s5037s79792w         0         0         0         0  
     128  hru128                 128     198.04435     -12.15547     -76.33337    3992.08453       128      s5037s79792w         0         0         0         0  
     129  hru129                 129     445.40735     -12.03283     -76.30892    4542.23333       129      s5037s79792w         0         0         0         0  
     130  hru130                 130     702.35790     -12.03500     -76.30973    4555.39233       130      s5037s79792w         0         0         0         0  
     131  hru131                 131     409.77476     -12.03143     -76.30825    4523.91232       131      s5037s79792w         0         0         0         0  
     132  hru132                 132     134.66972     -12.16433     -76.43350    3254.42771       132      s5037s79792w         0         0         0         0  
     133  hru133                 133     212.75382     -12.17310     -76.43721    3484.58723       133      s5037s79792w         0         0         0         0  
     134  hru134                 134     198.35389     -12.17748     -76.43388    3524.78630       134      s5037s79792w         0         0         0         0  
     135  hru135                 135     113.37405     -12.17941     -76.41610    3610.70662       135      s5037s79792w         0         0         0         0  
     136  hru136                 136     202.41021     -12.17895     -76.41616    3612.51503       136      s5037s79792w         0         0         0         0  
     137  hru137                 137     109.95404     -12.18059     -76.37390    3532.50334       137      s5037s79792w         0         0         0         0  
     138  hru138                 138      88.44129     -12.18885     -76.36635    3724.05198       138      s5037s79792w         0         0         0         0  
     139  hru139                 139      95.24447     -12.19365     -76.37183    3730.55985       139      s5037s79792w         0         0         0         0  
     140  hru140                 140     236.64021     -12.19392     -76.37009    3778.25486       140      s5037s79792w         0         0         0         0  
     141  hru141                 141      85.10268     -12.09447     -76.32656    4520.02503       141      s5037s79792w         0         0         0         0  
     142  hru142                 142      82.61707     -12.09705     -76.32607    4519.71490       142      s5037s79792w         0         0         0         0  
     143  hru143                 143     114.21987     -12.09972     -76.32634    4422.62280       143      s5037s79792w         0         0         0         0  
     144  hru144                 144      76.58058     -12.10236     -76.32258    4352.65224       144      s5037s79792w         0         0         0         0  
     145  hru145                 145     120.72981     -12.10491     -76.31809    4288.78922       145      s5037s79792w         0         0         0         0  
     146  hru146                 146      99.06684     -12.17886     -76.38655    3479.77642       146      s5037s79792w         0         0         0         0  
     147  hru147                 147     110.14169     -12.17892     -76.38647    3482.71763       147      s5037s79792w         0         0         0         0  
     148  hru148                 148     119.24431     -12.19159     -76.39155    3644.84860       148      s5037s79792w         0         0         0         0  
     149  hru149                 149      98.46000     -12.19216     -76.39456    3658.83205       149      s5037s79792w         0         0         0         0  
     150  hru150                 150     163.84715     -12.19296     -76.39244    3660.90741       150      s5037s79792w         0         0         0         0  
     151  hru151                 151     450.05807     -12.18239     -76.33833    3926.80440       151      s5037s79792w         0         0         0         0  
     152  hru152                 152     403.66872     -12.18119     -76.33975    3941.84173       152      s5037s79792w         0         0         0         0  
     153  hru153                 153     542.56548     -12.18292     -76.34056    3946.82025       153      s5037s79792w         0         0         0         0  
     154  hru154                 154     421.43774     -12.18192     -76.33181    3970.04345       154      s5037s79792w         0         0         0         0  
     155  hru155                 155      76.08241     -12.17485     -76.37236    3520.64841       155      s5037s79792w         0         0         0         0  
     156  hru156                 156      37.63794     -12.17735     -76.37025    3569.40357       156      s5037s79792w         0         0         0         0  
     157  hru157                 157      53.49965     -12.17660     -76.36960    3584.16332       157      s5037s79792w         0         0         0         0  
     158  hru158                 158     141.68409     -12.04901     -76.29836    4532.97796       158      s5037s79792w         0         0         0         0  
     159  hru159                 159     118.46039     -12.04840     -76.29784    4520.98270       159      s5037s79792w         0         0         0         0  
     160  hru160                 160     233.50552     -12.05083     -76.30153    4531.19390       160      s5037s79792w         0         0         0         0  
     161  hru161                 161     306.70703     -12.12029     -76.41424    3177.89207       161      s5037s79792w         0         0         0         0  
     162  hru162                 162      81.03768     -12.12328     -76.40981    3244.46271       162      s5037s79792w         0         0         0         0  
     163  hru163                 163      87.90528     -12.12142     -76.40385    3379.81562       163      s5037s79792w         0         0         0         0  
     164  hru164                 164     122.76000     -12.14626     -76.33576    3904.55113       164      s5037s79792w         0         0         0         0  
     165  hru165                 165      21.46452     -12.08322     -76.30263    4262.16667       165      s5037s79792w         0         0         0         0  
     166  hru166                 166      34.58172     -12.08436     -76.30364    4242.41379       166      s5037s79792w         0         0         0         0  
     167  hru167                 167      27.78462     -12.08368     -76.30312    4261.30901       167      s5037s79792w         0         0         0         0  
     168  hru168                 168      15.97914     -12.08452     -76.29755    4368.52239       168      s5037s79792w         0         0         0         0  
     169  hru169                 169     431.82000     -12.15755     -76.35017    3765.98357       169      s5037s79792w         0         0         0         0  
     170  hru170                 170     199.19584     -12.16097     -76.36226    3660.22648       170      s5037s79792w         0         0         0         0  
     171  hru171                 171     100.80273     -12.16170     -76.36231    3679.71315       171      s5037s79792w         0         0         0         0  
     172  hru172                 172     163.05143     -12.16288     -76.37092    3443.32102       172      s5037s79792w         0         0         0         0  
     173  hru173                 173     329.57235     -12.16696     -76.39641    3473.14541       173      s5037s79792w         0         0         0         0  
     174  hru174                 174     332.95065     -12.16227     -76.39538    3423.05599       174      s5037s79792w         0         0         0         0  
     175  hru175                 175    1259.60700     -12.16019     -76.39966    3300.95917       175      s5037s79792w         0         0         0         0  
     176  hru176                 176      65.66760     -12.15262     -76.43686    3146.03800       176      s5037s79792w         0         0         0         0  
     177  hru177                 177     241.00009     -12.14934     -76.43352    3001.16022       177      s5037s79792w         0         0         0         0  
     178  hru178                 178      69.08231     -12.14551     -76.42136    2934.53612       178      s5037s79792w         0         0         0         0  
     179  hru179                 179     272.58172     -12.13361     -76.43128    2727.04796       179      s5037s79792w         0         0         0         0  
     180  hru180                 180     146.54191     -12.12950     -76.41705    3041.54085       180      s5037s79792w         0         0         0         0  
     181  hru181                 181      86.13637     -12.14877     -76.44145    3263.64696       181      s5037s79792w         0         0         0         0  
     182  hru182                 182    1087.47000     -12.12262     -76.44431    2564.49502       182      s5037s79792w         0         0         0         0  