hyd-sed-lte.cha: written by SWAT+ editor v3.0.4 on 2024-10-15 00:19 for SWAT+ rev.61.0.1
name                         order            wd            dp           slp           len          mann             k     erod_fact      cov_fact          sinu        eq_slp           d50          clay        carbon        dry_bd      side_slp  bankfull_flo           fps           fpn        n_conc        p_conc         p_bio  description
hydcha001                        2      13.99245       0.63701       0.06270       1.19610       0.05000       1.00000       0.01000       0.00500       1.05000       0.00100      12.00000      50.00000       0.04000       1.00000       0.50000       0.50000       0.00001       0.10000       0.00000       0.00000       0.00000  
hydcha002                        2      12.89547       0.60327       0.06002       2.78220       0.05000       1.00000       0.01000       0.00500       1.05000       0.00100      12.00000      50.00000       0.04000       1.00000       0.50000       0.50000       0.00001       0.10000       0.00000       0.00000       0.00000  
hydcha003                        2       8.91448       0.47164       0.01654       3.14430       0.05000       1.00000       0.01000       0.00500       1.05000       0.00100      12.00000      50.00000       0.04000       1.00000       0.50000       0.50000       0.00001       0.10000       0.00000       0.00000       0.00000  
hydcha004                        1       6.03869       0.36379       0.05214       3.60550       0.05000       1.00000       0.01000       0.00500       1.05000       0.00100      12.00000      50.00000       0.04000       1.00000       0.50000       0.50000       0.00001       0.10000       0.00000       0.00000       0.00000  
hydcha005                        1       2.91964       0.22410       0.23010       0.58670       0.05000       1.00000       0.01000       0.00500       1.05000       0.00100      12.00000      50.00000       0.04000       1.00000       0.50000       0.50000       0.00001       0.10000       0.00000       0.00000       0.00000  
hydcha006                        1       4.74917       0.30995       0.13423       3.38220       0.05000       1.00000       0.01000       0.00500       1.05000       0.00100      12.00000      50.00000       0.04000       1.00000       0.50000       0.50000       0.00001       0.10000       0.00000       0.00000       0.00000  
hydcha007                        1       3.40847       0.24846       0.13493       1.36370       0.05000       1.00000       0.01000       0.00500       1.05000       0.00100      12.00000      50.00000       0.04000       1.00000       0.50000       0.50000       0.00001       0.10000       0.00000       0.00000       0.00000  
hydcha008                        1       5.47559       0.34080       0.04579       4.06190       0.05000       1.00000       0.01000       0.00500       1.05000       0.00100      12.00000      50.00000       0.04000       1.00000       0.50000       0.50000       0.00001       0.10000       0.00000       0.00000       0.00000  
hydcha009                        3      23.35365       0.89630       0.10711       1.95120       0.05000       1.00000       0.01000       0.00500       1.05000       0.00100      12.00000      50.00000       0.04000       1.00000       0.50000       0.50000       0.00001       0.10000       0.00000       0.00000       0.00000  
hydcha010                        3      21.24799       0.84158       0.08309       4.86200       0.05000       1.00000       0.01000       0.00500       1.05000       0.00100      12.00000      50.00000       0.04000       1.00000       0.50000       0.50000       0.00001       0.10000       0.00000       0.00000       0.00000  
hydcha011                        2      17.85138       0.74932       0.06714       3.50010       0.05000       1.00000       0.01000       0.00500       1.05000       0.00100      12.00000      50.00000       0.04000       1.00000       0.50000       0.50000       0.00001       0.10000       0.00000       0.00000       0.00000  
hydcha012                        2      16.24295       0.70360       0.06846       2.61460       0.05000       1.00000       0.01000       0.00500       1.05000       0.00100      12.00000      50.00000       0.04000       1.00000       0.50000       0.50000       0.00001       0.10000       0.00000       0.00000       0.00000  
hydcha013                        3      23.49663       0.89995       0.07429       7.48440       0.05000       1.00000       0.01000       0.00500       1.05000       0.00100      12.00000      50.00000       0.04000       1.00000       0.50000       0.50000       0.00001       0.10000       0.00000       0.00000       0.00000  
hydcha014                        3      20.90253       0.83243       0.07136       1.26120       0.05000       1.00000       0.01000       0.00500       1.05000       0.00100      12.00000      50.00000       0.04000       1.00000       0.50000       0.50000       0.00001       0.10000       0.00000       0.00000       0.00000  
hydcha015                        2      18.00443       0.75359       0.06878       3.57680       0.05000       1.00000       0.01000       0.00500       1.05000       0.00100      12.00000      50.00000       0.04000       1.00000       0.50000       0.50000       0.00001       0.10000       0.00000       0.00000       0.00000  
hydcha016                        2      14.06057       0.63908       0.07210       2.70460       0.05000       1.00000       0.01000       0.00500       1.05000       0.00100      12.00000      50.00000       0.04000       1.00000       0.50000       0.50000       0.00001       0.10000       0.00000       0.00000       0.00000  
hydcha017                        2       7.12062       0.40603       0.18921       0.68180       0.05000       1.00000       0.01000       0.00500       1.05000       0.00100      12.00000      50.00000       0.04000       1.00000       0.50000       0.50000       0.00001       0.10000       0.00000       0.00000       0.00000  
hydcha018                        2       7.35514       0.41490       0.12948       2.52550       0.05000       1.00000       0.01000       0.00500       1.05000       0.00100      12.00000      50.00000       0.04000       1.00000       0.50000       0.50000       0.00001       0.10000       0.00000       0.00000       0.00000  
hydcha019                        1       4.26852       0.28867       0.18945       2.48610       0.05000       1.00000       0.01000       0.00500       1.05000       0.00100      12.00000      50.00000       0.04000       1.00000       0.50000       0.50000       0.00001       0.10000       0.00000       0.00000       0.00000  
hydcha020                        1       3.27590       0.24197       0.20274       1.12460       0.05000       1.00000       0.01000       0.00500       1.05000       0.00100      12.00000      50.00000       0.04000       1.00000       0.50000       0.50000       0.00001       0.10000       0.00000       0.00000       0.00000  
hydcha021                        1       7.57151       0.42300       0.05190       6.37780       0.05000       1.00000       0.01000       0.00500       1.05000       0.00100      12.00000      50.00000       0.04000       1.00000       0.50000       0.50000       0.00001       0.10000       0.00000       0.00000       0.00000  
hydcha022                        1       9.64797       0.49717       0.04206       8.41570       0.05000       1.00000       0.01000       0.00500       1.05000       0.00100      12.00000      50.00000       0.04000       1.00000       0.50000       0.50000       0.00001       0.10000       0.00000       0.00000       0.00000  
hydcha023                        1       5.31999       0.33432       0.15889       2.94550       0.05000       1.00000       0.01000       0.00500       1.05000       0.00100      12.00000      50.00000       0.04000       1.00000       0.50000       0.50000       0.00001       0.10000       0.00000       0.00000       0.00000  
hydcha024                        2       6.06330       0.36477       0.28289       1.05340       0.05000       1.00000       0.01000       0.00500       1.05000       0.00100      12.00000      50.00000       0.04000       1.00000       0.50000       0.50000       0.00001       0.10000       0.00000       0.00000       0.00000  
hydcha025                        1       7.50042       0.42035       0.10038       5.41960       0.05000       1.00000       0.01000       0.00500       1.05000       0.00100      12.00000      50.00000       0.04000       1.00000       0.50000       0.50000       0.00001       0.10000       0.00000       0.00000       0.00000  
hydcha026                        1       3.00211       0.22830       0.25744       1.04490       0.05000       1.00000       0.01000       0.00500       1.05000       0.00100      12.00000      50.00000       0.04000       1.00000       0.50000       0.50000       0.00001       0.10000       0.00000       0.00000       0.00000  
hydcha027                        1       3.97073       0.27508       0.24324       1.54580       0.05000       1.00000       0.01000       0.00500       1.05000       0.00100      12.00000      50.00000       0.04000       1.00000       0.50000       0.50000       0.00001       0.10000       0.00000       0.00000       0.00000  
hydcha028                        1       3.77116       0.26579       0.22376       1.85910       0.05000       1.00000       0.01000       0.00500       1.05000       0.00100      12.00000      50.00000       0.04000       1.00000       0.50000       0.50000       0.00001       0.10000       0.00000       0.00000       0.00000  
hydcha029                        1       2.81824       0.21888       0.34109       0.38700       0.05000       1.00000       0.01000       0.00500       1.05000       0.00100      12.00000      50.00000       0.04000       1.00000       0.50000       0.50000       0.00001       0.10000       0.00000       0.00000       0.00000  
hydcha030                        1       3.85705       0.26981       0.23736       2.16550       0.05000       1.00000       0.01000       0.00500       1.05000       0.00100      12.00000      50.00000       0.04000       1.00000       0.50000       0.50000       0.00001       0.10000       0.00000       0.00000       0.00000  
hydcha031                        4      78.96286       2.01914       0.00001       0.03000       0.05000       1.00000       0.01000       0.00500       1.05000       0.00100      12.00000      50.00000       0.04000       1.00000       0.50000       0.50000       0.00001       0.10000       0.00000       0.00000       0.00000  
hydcha032                        4      78.47402       2.01079       0.02095       4.24920       0.05000       1.00000       0.01000       0.00500       1.05000       0.00100      12.00000      50.00000       0.04000       1.00000       0.50000       0.50000       0.00001       0.10000       0.00000       0.00000       0.00000  
hydcha033                        4      77.39314       1.99229       0.03704       2.80790       0.05000       1.00000       0.01000       0.00500       1.05000       0.00100      12.00000      50.00000       0.04000       1.00000       0.50000       0.50000       0.00001       0.10000       0.00000       0.00000       0.00000  
hydcha034                        4      74.95371       1.95020       0.04841       0.61970       0.05000       1.00000       0.01000       0.00500       1.05000       0.00100      12.00000      50.00000       0.04000       1.00000       0.50000       0.50000       0.00001       0.10000       0.00000       0.00000       0.00000  
hydcha035                        4      73.15987       1.91896       0.02509       4.30400       0.05000       1.00000       0.01000       0.00500       1.05000       0.00100      12.00000      50.00000       0.04000       1.00000       0.50000       0.50000       0.00001       0.10000       0.00000       0.00000       0.00000  
hydcha036                        4      39.05356       1.26277       0.05820       4.55350       0.05000       1.00000       0.01000       0.00500       1.05000       0.00100      12.00000      50.00000       0.04000       1.00000       0.50000       0.50000       0.00001       0.10000       0.00000       0.00000       0.00000  
hydcha037                        4      37.37503       1.22632       0.04533       2.05150       0.05000       1.00000       0.01000       0.00500       1.05000       0.00100      12.00000      50.00000       0.04000       1.00000       0.50000       0.50000       0.00001       0.10000       0.00000       0.00000       0.00000  
hydcha038                        4      36.06221       1.19743       0.05803       1.65430       0.05000       1.00000       0.01000       0.00500       1.05000       0.00100      12.00000      50.00000       0.04000       1.00000       0.50000       0.50000       0.00001       0.10000       0.00000       0.00000       0.00000  
hydcha039                        3      15.47928       0.68137       0.10332       2.62280       0.05000       1.00000       0.01000       0.00500       1.05000       0.00100      12.00000      50.00000       0.04000       1.00000       0.50000       0.50000       0.00001       0.10000       0.00000       0.00000       0.00000  
hydcha040                        2      11.59204       0.56190       0.09690       3.29220       0.05000       1.00000       0.01000       0.00500       1.05000       0.00100      12.00000      50.00000       0.04000       1.00000       0.50000       0.50000       0.00001       0.10000       0.00000       0.00000       0.00000  
hydcha041                        2      10.71695       0.53325       0.19067       1.43180       0.05000       1.00000       0.01000       0.00500       1.05000       0.00100      12.00000      50.00000       0.04000       1.00000       0.50000       0.50000       0.00001       0.10000       0.00000       0.00000       0.00000  
hydcha042                        2       9.56174       0.49421       0.27786       1.42880       0.05000       1.00000       0.01000       0.00500       1.05000       0.00100      12.00000      50.00000       0.04000       1.00000       0.50000       0.50000       0.00001       0.10000       0.00000       0.00000       0.00000  
hydcha043                        2       9.71103       0.49934       0.12268       2.12740       0.05000       1.00000       0.01000       0.00500       1.05000       0.00100      12.00000      50.00000       0.04000       1.00000       0.50000       0.50000       0.00001       0.10000       0.00000       0.00000       0.00000  
hydcha044                        1       5.06954       0.32374       0.12966       3.71740       0.05000       1.00000       0.01000       0.00500       1.05000       0.00100      12.00000      50.00000       0.04000       1.00000       0.50000       0.50000       0.00001       0.10000       0.00000       0.00000       0.00000  
hydcha045                        2      10.69384       0.53248       0.12457       4.92890       0.05000       1.00000       0.01000       0.00500       1.05000       0.00100      12.00000      50.00000       0.04000       1.00000       0.50000       0.50000       0.00001       0.10000       0.00000       0.00000       0.00000  
hydcha046                        1       5.29177       0.33313       0.20224       5.33040       0.05000       1.00000       0.01000       0.00500       1.05000       0.00100      12.00000      50.00000       0.04000       1.00000       0.50000       0.50000       0.00001       0.10000       0.00000       0.00000       0.00000  
hydcha047                        1       6.40378       0.37830       0.20737       5.46370       0.05000       1.00000       0.01000       0.00500       1.05000       0.00100      12.00000      50.00000       0.04000       1.00000       0.50000       0.50000       0.00001       0.10000       0.00000       0.00000       0.00000  
hydcha048                        1       5.66084       0.34845       0.22880       5.09170       0.05000       1.00000       0.01000       0.00500       1.05000       0.00100      12.00000      50.00000       0.04000       1.00000       0.50000       0.50000       0.00001       0.10000       0.00000       0.00000       0.00000  
hydcha049                        1       6.28964       0.37380       0.25079       3.30160       0.05000       1.00000       0.01000       0.00500       1.05000       0.00100      12.00000      50.00000       0.04000       1.00000       0.50000       0.50000       0.00001       0.10000       0.00000       0.00000       0.00000  
hydcha050                        1       3.72944       0.26382       0.29531       2.37040       0.05000       1.00000       0.01000       0.00500       1.05000       0.00100      12.00000      50.00000       0.04000       1.00000       0.50000       0.50000       0.00001       0.10000       0.00000       0.00000       0.00000  
hydcha051                        2      10.94142       0.54067       0.14822       3.59610       0.05000       1.00000       0.01000       0.00500       1.05000       0.00100      12.00000      50.00000       0.04000       1.00000       0.50000       0.50000       0.00001       0.10000       0.00000       0.00000       0.00000  
hydcha052                        2       6.78064       0.39300       0.12182       1.11640       0.05000       1.00000       0.01000       0.00500       1.05000       0.00100      12.00000      50.00000       0.04000       1.00000       0.50000       0.50000       0.00001       0.10000       0.00000       0.00000       0.00000  
hydcha053                        2       5.30698       0.33377       0.22056       0.92490       0.05000       1.00000       0.01000       0.00500       1.05000       0.00100      12.00000      50.00000       0.04000       1.00000       0.50000       0.50000       0.00001       0.10000       0.00000       0.00000       0.00000  
hydcha054                        2       7.83375       0.43271       0.20728       3.19370       0.05000       1.00000       0.01000       0.00500       1.05000       0.00100      12.00000      50.00000       0.04000       1.00000       0.50000       0.50000       0.00001       0.10000       0.00000       0.00000       0.00000  
hydcha055                        2       8.13891       0.44388       0.29057       3.96460       0.05000       1.00000       0.01000       0.00500       1.05000       0.00100      12.00000      50.00000       0.04000       1.00000       0.50000       0.50000       0.00001       0.10000       0.00000       0.00000       0.00000  
hydcha056                        1       2.92650       0.22445       0.18599       0.87640       0.05000       1.00000       0.01000       0.00500       1.05000       0.00100      12.00000      50.00000       0.04000       1.00000       0.50000       0.50000       0.00001       0.10000       0.00000       0.00000       0.00000  
hydcha057                        1       3.79700       0.26700       0.28998       1.40700       0.05000       1.00000       0.01000       0.00500       1.05000       0.00100      12.00000      50.00000       0.04000       1.00000       0.50000       0.50000       0.00001       0.10000       0.00000       0.00000       0.00000  
hydcha058                        1       4.60991       0.30386       0.39410       2.46640       0.05000       1.00000       0.01000       0.00500       1.05000       0.00100      12.00000      50.00000       0.04000       1.00000       0.50000       0.50000       0.00001       0.10000       0.00000       0.00000       0.00000  
hydcha059                        1       3.12267       0.23437       0.30998       0.40970       0.05000       1.00000       0.01000       0.00500       1.05000       0.00100      12.00000      50.00000       0.04000       1.00000       0.50000       0.50000       0.00001       0.10000       0.00000       0.00000       0.00000  
hydcha060                        1       4.36967       0.29321       0.19417       2.69860       0.05000       1.00000       0.01000       0.00500       1.05000       0.00100      12.00000      50.00000       0.04000       1.00000       0.50000       0.50000       0.00001       0.10000       0.00000       0.00000       0.00000  
hydcha061                        1       3.98158       0.27558       0.31495       2.12100       0.05000       1.00000       0.01000       0.00500       1.05000       0.00100      12.00000      50.00000       0.04000       1.00000       0.50000       0.50000       0.00001       0.10000       0.00000       0.00000       0.00000  
hydcha062                        1       2.83929       0.21997       0.27964       0.44700       0.05000       1.00000       0.01000       0.00500       1.05000       0.00100      12.00000      50.00000       0.04000       1.00000       0.50000       0.50000       0.00001       0.10000       0.00000       0.00000       0.00000  
hydcha063                        1       4.81316       0.31273       0.24178       4.68200       0.05000       1.00000       0.01000       0.00500       1.05000       0.00100      12.00000      50.00000       0.04000       1.00000       0.50000       0.50000       0.00001       0.10000       0.00000       0.00000       0.00000  
hydcha064                        1       2.75907       0.21580       0.16667       0.03000       0.05000       1.00000       0.01000       0.00500       1.05000       0.00100      12.00000      50.00000       0.04000       1.00000       0.50000       0.50000       0.00001       0.10000       0.00000       0.00000       0.00000  
hydcha065                        1       4.05247       0.27885       0.11936       2.15310       0.05000       1.00000       0.01000       0.00500       1.05000       0.00100      12.00000      50.00000       0.04000       1.00000       0.50000       0.50000       0.00001       0.10000       0.00000       0.00000       0.00000  
hydcha066                        1       3.92546       0.27299       0.29224       2.41580       0.05000       1.00000       0.01000       0.00500       1.05000       0.00100      12.00000      50.00000       0.04000       1.00000       0.50000       0.50000       0.00001       0.10000       0.00000       0.00000       0.00000  
hydcha067                        1       3.17722       0.23709       0.27924       1.15670       0.05000       1.00000       0.01000       0.00500       1.05000       0.00100      12.00000      50.00000       0.04000       1.00000       0.50000       0.50000       0.00001       0.10000       0.00000       0.00000       0.00000  
hydcha068                        1       4.61050       0.30389       0.12184       2.20790       0.05000       1.00000       0.01000       0.00500       1.05000       0.00100      12.00000      50.00000       0.04000       1.00000       0.50000       0.50000       0.00001       0.10000       0.00000       0.00000       0.00000  
hydcha069                        1       5.31186       0.33398       0.34002       2.99100       0.05000       1.00000       0.01000       0.00500       1.05000       0.00100      12.00000      50.00000       0.04000       1.00000       0.50000       0.50000       0.00001       0.10000       0.00000       0.00000       0.00000  
hydcha070                        4      72.42366       1.90606       0.08284       0.28970       0.05000       1.00000       0.01000       0.00500       1.05000       0.00100      12.00000      50.00000       0.04000       1.00000       0.50000       0.50000       0.00001       0.10000       0.00000       0.00000       0.00000  
hydcha071                        4      71.54865       1.89068       0.03282       1.82820       0.05000       1.00000       0.01000       0.00500       1.05000       0.00100      12.00000      50.00000       0.04000       1.00000       0.50000       0.50000       0.00001       0.10000       0.00000       0.00000       0.00000  
hydcha072                        4      70.53935       1.87286       0.03549       1.21150       0.05000       1.00000       0.01000       0.00500       1.05000       0.00100      12.00000      50.00000       0.04000       1.00000       0.50000       0.50000       0.00001       0.10000       0.00000       0.00000       0.00000  
hydcha073                        4      65.54283       1.78334       0.03206       1.27880       0.05000       1.00000       0.01000       0.00500       1.05000       0.00100      12.00000      50.00000       0.04000       1.00000       0.50000       0.50000       0.00001       0.10000       0.00000       0.00000       0.00000  
hydcha074                        4      65.29033       1.77876       0.02120       0.80180       0.05000       1.00000       0.01000       0.00500       1.05000       0.00100      12.00000      50.00000       0.04000       1.00000       0.50000       0.50000       0.00001       0.10000       0.00000       0.00000       0.00000  
hydcha075                        4      64.97142       1.77296       0.03561       2.21820       0.05000       1.00000       0.01000       0.00500       1.05000       0.00100      12.00000      50.00000       0.04000       1.00000       0.50000       0.50000       0.00001       0.10000       0.00000       0.00000       0.00000  
hydcha076                        4      62.06139       1.71961       0.03996       2.85250       0.05000       1.00000       0.01000       0.00500       1.05000       0.00100      12.00000      50.00000       0.04000       1.00000       0.50000       0.50000       0.00001       0.10000       0.00000       0.00000       0.00000  
hydcha077                        4      60.23941       1.68579       0.04744       0.67460       0.05000       1.00000       0.01000       0.00500       1.05000       0.00100      12.00000      50.00000       0.04000       1.00000       0.50000       0.50000       0.00001       0.10000       0.00000       0.00000       0.00000  
hydcha078                        4      49.26208       1.47421       0.06189       4.03920       0.05000       1.00000       0.01000       0.00500       1.05000       0.00100      12.00000      50.00000       0.04000       1.00000       0.50000       0.50000       0.00001       0.10000       0.00000       0.00000       0.00000  
hydcha079                        4      43.37815       1.35435       0.08819       2.54010       0.05000       1.00000       0.01000       0.00500       1.05000       0.00100      12.00000      50.00000       0.04000       1.00000       0.50000       0.50000       0.00001       0.10000       0.00000       0.00000       0.00000  
hydcha080                        4      42.77255       1.34172       0.10382       1.52180       0.05000       1.00000       0.01000       0.00500       1.05000       0.00100      12.00000      50.00000       0.04000       1.00000       0.50000       0.50000       0.00001       0.10000       0.00000       0.00000       0.00000  
hydcha081                        4      41.98798       1.32526       0.08803       1.63580       0.05000       1.00000       0.01000       0.00500       1.05000       0.00100      12.00000      50.00000       0.04000       1.00000       0.50000       0.50000       0.00001       0.10000       0.00000       0.00000       0.00000  
hydcha082                        3      28.28774       1.01847       0.13147       5.12680       0.05000       1.00000       0.01000       0.00500       1.05000       0.00100      12.00000      50.00000       0.04000       1.00000       0.50000       0.50000       0.00001       0.10000       0.00000       0.00000       0.00000  
hydcha083                        3      19.03527       0.78209       0.07291       4.96530       0.05000       1.00000       0.01000       0.00500       1.05000       0.00100      12.00000      50.00000       0.04000       1.00000       0.50000       0.50000       0.00001       0.10000       0.00000       0.00000       0.00000  
hydcha084                        3      16.16729       0.70141       0.23104       3.18120       0.05000       1.00000       0.01000       0.00500       1.05000       0.00100      12.00000      50.00000       0.04000       1.00000       0.50000       0.50000       0.00001       0.10000       0.00000       0.00000       0.00000  
hydcha085                        3      12.63719       0.59518       0.03353       2.86280       0.05000       1.00000       0.01000       0.00500       1.05000       0.00100      12.00000      50.00000       0.04000       1.00000       0.50000       0.50000       0.00001       0.10000       0.00000       0.00000       0.00000  
hydcha086                        2      12.73205       0.59816       0.09179       1.11120       0.05000       1.00000       0.01000       0.00500       1.05000       0.00100      12.00000      50.00000       0.04000       1.00000       0.50000       0.50000       0.00001       0.10000       0.00000       0.00000       0.00000  
hydcha087                        2      11.03894       0.54388       0.10395       1.80850       0.05000       1.00000       0.01000       0.00500       1.05000       0.00100      12.00000      50.00000       0.04000       1.00000       0.50000       0.50000       0.00001       0.10000       0.00000       0.00000       0.00000  
hydcha088                        2       9.77166       0.50141       0.04017       3.63460       0.05000       1.00000       0.01000       0.00500       1.05000       0.00100      12.00000      50.00000       0.04000       1.00000       0.50000       0.50000       0.00001       0.10000       0.00000       0.00000       0.00000  
hydcha089                        2       9.88698       0.50535       0.13250       4.20370       0.05000       1.00000       0.01000       0.00500       1.05000       0.00100      12.00000      50.00000       0.04000       1.00000       0.50000       0.50000       0.00001       0.10000       0.00000       0.00000       0.00000  