hydrology.hyd: written by SWAT+ editor v3.0.4 on 2024-10-15 00:19 for SWAT+ rev.61.0.1
name                 lat_ttime       lat_sed       can_max          esco          epco   orgn_enrich   orgp_enrich       cn3_swf       bio_mix         perco      lat_orgn      lat_orgp        pet_co       latq_co  
hyd001                 0.00000       0.00000       1.00000       0.95000       0.50000       0.00000       0.00000       0.95000       0.20000       0.50000       0.00000       0.00000       1.00000       0.01000  
hyd002                 0.00000       0.00000       1.00000       0.95000       0.50000       0.00000       0.00000       0.95000       0.20000       0.50000       0.00000       0.00000       1.00000       0.01000  
hyd003                 0.00000       0.00000       1.00000       0.95000       0.50000       0.00000       0.00000       0.95000       0.20000       0.50000       0.00000       0.00000       1.00000       0.01000  
hyd004                 0.00000       0.00000       1.00000       0.95000       0.50000       0.00000       0.00000       0.95000       0.20000       0.50000       0.00000       0.00000       1.00000       0.01000  
hyd005                 0.00000       0.00000       1.00000       0.95000       0.50000       0.00000       0.00000       0.95000       0.20000       0.50000       0.00000       0.00000       1.00000       0.01000  
hyd006                 0.00000       0.00000       1.00000       0.95000       0.50000       0.00000       0.00000       0.95000       0.20000       0.50000       0.00000       0.00000       1.00000       0.01000  
hyd007                 0.00000       0.00000       1.00000       0.95000       0.50000       0.00000       0.00000       0.95000       0.20000       0.50000       0.00000       0.00000       1.00000       0.01000  
hyd008                 0.00000       0.00000       1.00000       0.95000       0.50000       0.00000       0.00000       0.95000       0.20000       0.50000       0.00000       0.00000       1.00000       0.01000  
hyd009                 0.00000       0.00000       1.00000       0.95000       0.50000       0.00000       0.00000       0.95000       0.20000       0.50000       0.00000       0.00000       1.00000       0.01000  
hyd010                 0.00000       0.00000       1.00000       0.95000       0.50000       0.00000       0.00000       0.95000       0.20000       0.50000       0.00000       0.00000       1.00000       0.01000  
hyd011                 0.00000       0.00000       1.00000       0.95000       0.50000       0.00000       0.00000       0.95000       0.20000       0.50000       0.00000       0.00000       1.00000       0.01000  
hyd012                 0.00000       0.00000       1.00000       0.95000       0.50000       0.00000       0.00000       0.95000       0.20000       0.50000       0.00000       0.00000       1.00000       0.01000  
hyd013                 0.00000       0.00000       1.00000       0.95000       0.50000       0.00000       0.00000       0.95000       0.20000       0.50000       0.00000       0.00000       1.00000       0.01000  
hyd014                 0.00000       0.00000       1.00000       0.95000       0.50000       0.00000       0.00000       0.95000       0.20000       0.50000       0.00000       0.00000       1.00000       0.01000  
hyd015                 0.00000       0.00000       1.00000       0.95000       0.50000       0.00000       0.00000       0.95000       0.20000       0.50000       0.00000       0.00000       1.00000       0.01000  
hyd016                 0.00000       0.00000       1.00000       0.95000       0.50000       0.00000       0.00000       0.95000       0.20000       0.50000       0.00000       0.00000       1.00000       0.01000  
hyd017                 0.00000       0.00000       1.00000       0.95000       0.50000       0.00000       0.00000       0.95000       0.20000       0.50000       0.00000       0.00000       1.00000       0.01000  
hyd018                 0.00000       0.00000       1.00000       0.95000       0.50000       0.00000       0.00000       0.95000       0.20000       0.50000       0.00000       0.00000       1.00000       0.01000  
hyd019                 0.00000       0.00000       1.00000       0.95000       0.50000       0.00000       0.00000       0.95000       0.20000       0.50000       0.00000       0.00000       1.00000       0.01000  
hyd020                 0.00000       0.00000       1.00000       0.95000       0.50000       0.00000       0.00000       0.95000       0.20000       0.50000       0.00000       0.00000       1.00000       0.01000  
hyd021                 0.00000       0.00000       1.00000       0.95000       0.50000       0.00000       0.00000       0.95000       0.20000       0.50000       0.00000       0.00000       1.00000       0.01000  
hyd022                 0.00000       0.00000       1.00000       0.95000       0.50000       0.00000       0.00000       0.95000       0.20000       0.50000       0.00000       0.00000       1.00000       0.01000  
hyd023                 0.00000       0.00000       1.00000       0.95000       0.50000       0.00000       0.00000       0.95000       0.20000       0.50000       0.00000       0.00000       1.00000       0.01000  
hyd024                 0.00000       0.00000       1.00000       0.95000       0.50000       0.00000       0.00000       0.95000       0.20000       0.50000       0.00000       0.00000       1.00000       0.01000  
hyd025                 0.00000       0.00000       1.00000       0.95000       0.50000       0.00000       0.00000       0.95000       0.20000       0.50000       0.00000       0.00000       1.00000       0.01000  
hyd026                 0.00000       0.00000       1.00000       0.95000       0.50000       0.00000       0.00000       0.95000       0.20000       0.50000       0.00000       0.00000       1.00000       0.01000  
hyd027                 0.00000       0.00000       1.00000       0.95000       0.50000       0.00000       0.00000       0.95000       0.20000       0.50000       0.00000       0.00000       1.00000       0.01000  
hyd028                 0.00000       0.00000       1.00000       0.95000       0.50000       0.00000       0.00000       0.95000       0.20000       0.50000       0.00000       0.00000       1.00000       0.01000  
hyd029                 0.00000       0.00000       1.00000       0.95000       0.50000       0.00000       0.00000       0.95000       0.20000       0.50000       0.00000       0.00000       1.00000       0.01000  
hyd030                 0.00000       0.00000       1.00000       0.95000       0.50000       0.00000       0.00000       0.95000       0.20000       0.50000       0.00000       0.00000       1.00000       0.01000  
hyd031                 0.00000       0.00000       1.00000       0.95000       0.50000       0.00000       0.00000       0.95000       0.20000       0.50000       0.00000       0.00000       1.00000       0.01000  
hyd032                 0.00000       0.00000       1.00000       0.95000       0.50000       0.00000       0.00000       0.95000       0.20000       0.50000       0.00000       0.00000       1.00000       0.01000  
hyd033                 0.00000       0.00000       1.00000       0.95000       0.50000       0.00000       0.00000       0.95000       0.20000       0.50000       0.00000       0.00000       1.00000       0.01000  
hyd034                 0.00000       0.00000       1.00000       0.95000       0.50000       0.00000       0.00000       0.95000       0.20000       0.50000       0.00000       0.00000       1.00000       0.01000  
hyd035                 0.00000       0.00000       1.00000       0.95000       0.50000       0.00000       0.00000       0.95000       0.20000       0.50000       0.00000       0.00000       1.00000       0.01000  
hyd036                 0.00000       0.00000       1.00000       0.95000       0.50000       0.00000       0.00000       0.95000       0.20000       0.50000       0.00000       0.00000       1.00000       0.01000  
hyd037                 0.00000       0.00000       1.00000       0.95000       0.50000       0.00000       0.00000       0.95000       0.20000       0.05000       0.00000       0.00000       1.00000       0.01000  
hyd038                 0.00000       0.00000       1.00000       0.95000       0.50000       0.00000       0.00000       0.95000       0.20000       0.50000       0.00000       0.00000       1.00000       0.01000  
hyd039                 0.00000       0.00000       1.00000       0.95000       0.50000       0.00000       0.00000       0.95000       0.20000       0.05000       0.00000       0.00000       1.00000       0.01000  
hyd040                 0.00000       0.00000       1.00000       0.95000       0.50000       0.00000       0.00000       0.95000       0.20000       0.05000       0.00000       0.00000       1.00000       0.01000  
hyd041                 0.00000       0.00000       1.00000       0.95000       0.50000       0.00000       0.00000       0.95000       0.20000       0.05000       0.00000       0.00000       1.00000       0.01000  
hyd042                 0.00000       0.00000       1.00000       0.95000       0.50000       0.00000       0.00000       0.95000       0.20000       0.50000       0.00000       0.00000       1.00000       0.01000  
hyd043                 0.00000       0.00000       1.00000       0.95000       0.50000       0.00000       0.00000       0.95000       0.20000       0.50000       0.00000       0.00000       1.00000       0.01000  
hyd044                 0.00000       0.00000       1.00000       0.95000       0.50000       0.00000       0.00000       0.95000       0.20000       0.50000       0.00000       0.00000       1.00000       0.01000  
hyd045                 0.00000       0.00000       1.00000       0.95000       0.50000       0.00000       0.00000       0.95000       0.20000       0.50000       0.00000       0.00000       1.00000       0.01000  
hyd046                 0.00000       0.00000       1.00000       0.95000       0.50000       0.00000       0.00000       0.95000       0.20000       0.50000       0.00000       0.00000       1.00000       0.01000  
hyd047                 0.00000       0.00000       1.00000       0.95000       0.50000       0.00000       0.00000       0.95000       0.20000       0.50000       0.00000       0.00000       1.00000       0.01000  
hyd048                 0.00000       0.00000       1.00000       0.95000       0.50000       0.00000       0.00000       0.95000       0.20000       0.05000       0.00000       0.00000       1.00000       0.01000  
hyd049                 0.00000       0.00000       1.00000       0.95000       0.50000       0.00000       0.00000       0.95000       0.20000       0.50000       0.00000       0.00000       1.00000       0.01000  
hyd050                 0.00000       0.00000       1.00000       0.95000       0.50000       0.00000       0.00000       0.95000       0.20000       0.50000       0.00000       0.00000       1.00000       0.01000  
hyd051                 0.00000       0.00000       1.00000       0.95000       0.50000       0.00000       0.00000       0.95000       0.20000       0.50000       0.00000       0.00000       1.00000       0.01000  
hyd052                 0.00000       0.00000       1.00000       0.95000       0.50000       0.00000       0.00000       0.95000       0.20000       0.50000       0.00000       0.00000       1.00000       0.01000  
hyd053                 0.00000       0.00000       1.00000       0.95000       0.50000       0.00000       0.00000       0.95000       0.20000       0.50000       0.00000       0.00000       1.00000       0.01000  
hyd054                 0.00000       0.00000       1.00000       0.95000       0.50000       0.00000       0.00000       0.95000       0.20000       0.50000       0.00000       0.00000       1.00000       0.01000  
hyd055                 0.00000       0.00000       1.00000       0.95000       0.50000       0.00000       0.00000       0.95000       0.20000       0.50000       0.00000       0.00000       1.00000       0.01000  
hyd056                 0.00000       0.00000       1.00000       0.95000       0.50000       0.00000       0.00000       0.95000       0.20000       0.50000       0.00000       0.00000       1.00000       0.01000  
hyd057                 0.00000       0.00000       1.00000       0.95000       0.50000       0.00000       0.00000       0.95000       0.20000       0.50000       0.00000       0.00000       1.00000       0.01000  
hyd058                 0.00000       0.00000       1.00000       0.95000       0.50000       0.00000       0.00000       0.95000       0.20000       0.50000       0.00000       0.00000       1.00000       0.01000  
hyd059                 0.00000       0.00000       1.00000       0.95000       0.50000       0.00000       0.00000       0.95000       0.20000       0.50000       0.00000       0.00000       1.00000       0.01000  
hyd060                 0.00000       0.00000       1.00000       0.95000       0.50000       0.00000       0.00000       0.95000       0.20000       0.50000       0.00000       0.00000       1.00000       0.01000  
hyd061                 0.00000       0.00000       1.00000       0.95000       0.50000       0.00000       0.00000       0.95000       0.20000       0.50000       0.00000       0.00000       1.00000       0.01000  
hyd062                 0.00000       0.00000       1.00000       0.95000       0.50000       0.00000       0.00000       0.95000       0.20000       0.50000       0.00000       0.00000       1.00000       0.01000  
hyd063                 0.00000       0.00000       1.00000       0.95000       0.50000       0.00000       0.00000       0.95000       0.20000       0.50000       0.00000       0.00000       1.00000       0.01000  
hyd064                 0.00000       0.00000       1.00000       0.95000       0.50000       0.00000       0.00000       0.95000       0.20000       0.50000       0.00000       0.00000       1.00000       0.01000  
hyd065                 0.00000       0.00000       1.00000       0.95000       0.50000       0.00000       0.00000       0.95000       0.20000       0.50000       0.00000       0.00000       1.00000       0.01000  
hyd066                 0.00000       0.00000       1.00000       0.95000       0.50000       0.00000       0.00000       0.95000       0.20000       0.50000       0.00000       0.00000       1.00000       0.01000  
hyd067                 0.00000       0.00000       1.00000       0.95000       0.50000       0.00000       0.00000       0.95000       0.20000       0.50000       0.00000       0.00000       1.00000       0.01000  
hyd068                 0.00000       0.00000       1.00000       0.95000       0.50000       0.00000       0.00000       0.95000       0.20000       0.50000       0.00000       0.00000       1.00000       0.01000  
hyd069                 0.00000       0.00000       1.00000       0.95000       0.50000       0.00000       0.00000       0.95000       0.20000       0.50000       0.00000       0.00000       1.00000       0.01000  
hyd070                 0.00000       0.00000       1.00000       0.95000       0.50000       0.00000       0.00000       0.95000       0.20000       0.50000       0.00000       0.00000       1.00000       0.01000  
hyd071                 0.00000       0.00000       1.00000       0.95000       0.50000       0.00000       0.00000       0.95000       0.20000       0.50000       0.00000       0.00000       1.00000       0.01000  
hyd072                 0.00000       0.00000       1.00000       0.95000       0.50000       0.00000       0.00000       0.95000       0.20000       0.50000       0.00000       0.00000       1.00000       0.01000  
hyd073                 0.00000       0.00000       1.00000       0.95000       0.50000       0.00000       0.00000       0.95000       0.20000       0.50000       0.00000       0.00000       1.00000       0.01000  
hyd074                 0.00000       0.00000       1.00000       0.95000       0.50000       0.00000       0.00000       0.95000       0.20000       0.50000       0.00000       0.00000       1.00000       0.01000  
hyd075                 0.00000       0.00000       1.00000       0.95000       0.50000       0.00000       0.00000       0.95000       0.20000       0.50000       0.00000       0.00000       1.00000       0.01000  
hyd076                 0.00000       0.00000       1.00000       0.95000       0.50000       0.00000       0.00000       0.95000       0.20000       0.50000       0.00000       0.00000       1.00000       0.01000  
hyd077                 0.00000       0.00000       1.00000       0.95000       0.50000       0.00000       0.00000       0.95000       0.20000       0.50000       0.00000       0.00000       1.00000       0.01000  
hyd078                 0.00000       0.00000       1.00000       0.95000       0.50000       0.00000       0.00000       0.95000       0.20000       0.50000       0.00000       0.00000       1.00000       0.01000  
hyd079                 0.00000       0.00000       1.00000       0.95000       0.50000       0.00000       0.00000       0.95000       0.20000       0.50000       0.00000       0.00000       1.00000       0.01000  
hyd080                 0.00000       0.00000       1.00000       0.95000       0.50000       0.00000       0.00000       0.95000       0.20000       0.50000       0.00000       0.00000       1.00000       0.01000  
hyd081                 0.00000       0.00000       1.00000       0.95000       0.50000       0.00000       0.00000       0.95000       0.20000       0.50000       0.00000       0.00000       1.00000       0.01000  
hyd082                 0.00000       0.00000       1.00000       0.95000       0.50000       0.00000       0.00000       0.95000       0.20000       0.50000       0.00000       0.00000       1.00000       0.01000  
hyd083                 0.00000       0.00000       1.00000       0.95000       0.50000       0.00000       0.00000       0.95000       0.20000       0.50000       0.00000       0.00000       1.00000       0.01000  
hyd084                 0.00000       0.00000       1.00000       0.95000       0.50000       0.00000       0.00000       0.95000       0.20000       0.05000       0.00000       0.00000       1.00000       0.01000  
hyd085                 0.00000       0.00000       1.00000       0.95000       0.50000       0.00000       0.00000       0.95000       0.20000       0.05000       0.00000       0.00000       1.00000       0.01000  
hyd086                 0.00000       0.00000       1.00000       0.95000       0.50000       0.00000       0.00000       0.95000       0.20000       0.05000       0.00000       0.00000       1.00000       0.01000  
hyd087                 0.00000       0.00000       1.00000       0.95000       0.50000       0.00000       0.00000       0.95000       0.20000       0.05000       0.00000       0.00000       1.00000       0.01000  
hyd088                 0.00000       0.00000       1.00000       0.95000       0.50000       0.00000       0.00000       0.95000       0.20000       0.50000       0.00000       0.00000       1.00000       0.01000  
hyd089                 0.00000       0.00000       1.00000       0.95000       0.50000       0.00000       0.00000       0.95000       0.20000       0.50000       0.00000       0.00000       1.00000       0.01000  
hyd090                 0.00000       0.00000       1.00000       0.95000       0.50000       0.00000       0.00000       0.95000       0.20000       0.50000       0.00000       0.00000       1.00000       0.01000  
hyd091                 0.00000       0.00000       1.00000       0.95000       0.50000       0.00000       0.00000       0.95000       0.20000       0.50000       0.00000       0.00000       1.00000       0.01000  
hyd092                 0.00000       0.00000       1.00000       0.95000       0.50000       0.00000       0.00000       0.95000       0.20000       0.50000       0.00000       0.00000       1.00000       0.01000  
hyd093                 0.00000       0.00000       1.00000       0.95000       0.50000       0.00000       0.00000       0.95000       0.20000       0.05000       0.00000       0.00000       1.00000       0.01000  
hyd094                 0.00000       0.00000       1.00000       0.95000       0.50000       0.00000       0.00000       0.95000       0.20000       0.05000       0.00000       0.00000       1.00000       0.01000  
hyd095                 0.00000       0.00000       1.00000       0.95000       0.50000       0.00000       0.00000       0.95000       0.20000       0.05000       0.00000       0.00000       1.00000       0.01000  
hyd096                 0.00000       0.00000       1.00000       0.95000       0.50000       0.00000       0.00000       0.95000       0.20000       0.05000       0.00000       0.00000       1.00000       0.01000  
hyd097                 0.00000       0.00000       1.00000       0.95000       0.50000       0.00000       0.00000       0.95000       0.20000       0.50000       0.00000       0.00000       1.00000       0.01000  
hyd098                 0.00000       0.00000       1.00000       0.95000       0.50000       0.00000       0.00000       0.95000       0.20000       0.50000       0.00000       0.00000       1.00000       0.01000  
hyd099                 0.00000       0.00000       1.00000       0.95000       0.50000       0.00000       0.00000       0.95000       0.20000       0.50000       0.00000       0.00000       1.00000       0.01000  
hyd100                 0.00000       0.00000       1.00000       0.95000       0.50000       0.00000       0.00000       0.95000       0.20000       0.50000       0.00000       0.00000       1.00000       0.01000  
hyd101                 0.00000       0.00000       1.00000       0.95000       0.50000       0.00000       0.00000       0.95000       0.20000       0.50000       0.00000       0.00000       1.00000       0.01000  
hyd102                 0.00000       0.00000       1.00000       0.95000       0.50000       0.00000       0.00000       0.95000       0.20000       0.05000       0.00000       0.00000       1.00000       0.01000  
hyd103                 0.00000       0.00000       1.00000       0.95000       0.50000       0.00000       0.00000       0.95000       0.20000       0.50000       0.00000       0.00000       1.00000       0.01000  
hyd104                 0.00000       0.00000       1.00000       0.95000       0.50000       0.00000       0.00000       0.95000       0.20000       0.50000       0.00000       0.00000       1.00000       0.01000  
hyd105                 0.00000       0.00000       1.00000       0.95000       0.50000       0.00000       0.00000       0.95000       0.20000       0.05000       0.00000       0.00000       1.00000       0.01000  
hyd106                 0.00000       0.00000       1.00000       0.95000       0.50000       0.00000       0.00000       0.95000       0.20000       0.50000       0.00000       0.00000       1.00000       0.01000  
hyd107                 0.00000       0.00000       1.00000       0.95000       0.50000       0.00000       0.00000       0.95000       0.20000       0.50000       0.00000       0.00000       1.00000       0.01000  
hyd108                 0.00000       0.00000       1.00000       0.95000       0.50000       0.00000       0.00000       0.95000       0.20000       0.05000       0.00000       0.00000       1.00000       0.01000  
hyd109                 0.00000       0.00000       1.00000       0.95000       0.50000       0.00000       0.00000       0.95000       0.20000       0.50000       0.00000       0.00000       1.00000       0.01000  
hyd110                 0.00000       0.00000       1.00000       0.95000       0.50000       0.00000       0.00000       0.95000       0.20000       0.50000       0.00000       0.00000       1.00000       0.01000  
hyd111                 0.00000       0.00000       1.00000       0.95000       0.50000       0.00000       0.00000       0.95000       0.20000       0.50000       0.00000       0.00000       1.00000       0.01000  
hyd112                 0.00000       0.00000       1.00000       0.95000       0.50000       0.00000       0.00000       0.95000       0.20000       0.05000       0.00000       0.00000       1.00000       0.01000  
hyd113                 0.00000       0.00000       1.00000       0.95000       0.50000       0.00000       0.00000       0.95000       0.20000       0.05000       0.00000       0.00000       1.00000       0.01000  
hyd114                 0.00000       0.00000       1.00000       0.95000       0.50000       0.00000       0.00000       0.95000       0.20000       0.05000       0.00000       0.00000       1.00000       0.01000  
hyd115                 0.00000       0.00000       1.00000       0.95000       0.50000       0.00000       0.00000       0.95000       0.20000       0.05000       0.00000       0.00000       1.00000       0.01000  
hyd116                 0.00000       0.00000       1.00000       0.95000       0.50000       0.00000       0.00000       0.95000       0.20000       0.05000       0.00000       0.00000       1.00000       0.01000  
hyd117                 0.00000       0.00000       1.00000       0.95000       0.50000       0.00000       0.00000       0.95000       0.20000       0.05000       0.00000       0.00000       1.00000       0.01000  
hyd118                 0.00000       0.00000       1.00000       0.95000       0.50000       0.00000       0.00000       0.95000       0.20000       0.05000       0.00000       0.00000       1.00000       0.01000  
hyd119                 0.00000       0.00000       1.00000       0.95000       0.50000       0.00000       0.00000       0.95000       0.20000       0.05000       0.00000       0.00000       1.00000       0.01000  
hyd120                 0.00000       0.00000       1.00000       0.95000       0.50000       0.00000       0.00000       0.95000       0.20000       0.05000       0.00000       0.00000       1.00000       0.01000  
hyd121                 0.00000       0.00000       1.00000       0.95000       0.50000       0.00000       0.00000       0.95000       0.20000       0.05000       0.00000       0.00000       1.00000       0.01000  
hyd122                 0.00000       0.00000       1.00000       0.95000       0.50000       0.00000       0.00000       0.95000       0.20000       0.05000       0.00000       0.00000       1.00000       0.01000  
hyd123                 0.00000       0.00000       1.00000       0.95000       0.50000       0.00000       0.00000       0.95000       0.20000       0.05000       0.00000       0.00000       1.00000       0.01000  
hyd124                 0.00000       0.00000       1.00000       0.95000       0.50000       0.00000       0.00000       0.95000       0.20000       0.05000       0.00000       0.00000       1.00000       0.01000  
hyd125                 0.00000       0.00000       1.00000       0.95000       0.50000       0.00000       0.00000       0.95000       0.20000       0.05000       0.00000       0.00000       1.00000       0.01000  
hyd126                 0.00000       0.00000       1.00000       0.95000       0.50000       0.00000       0.00000       0.95000       0.20000       0.05000       0.00000       0.00000       1.00000       0.01000  
hyd127                 0.00000       0.00000       1.00000       0.95000       0.50000       0.00000       0.00000       0.95000       0.20000       0.05000       0.00000       0.00000       1.00000       0.01000  
hyd128                 0.00000       0.00000       1.00000       0.95000       0.50000       0.00000       0.00000       0.95000       0.20000       0.05000       0.00000       0.00000       1.00000       0.01000  
hyd129                 0.00000       0.00000       1.00000       0.95000       0.50000       0.00000       0.00000       0.95000       0.20000       0.05000       0.00000       0.00000       1.00000       0.01000  
hyd130                 0.00000       0.00000       1.00000       0.95000       0.50000       0.00000       0.00000       0.95000       0.20000       0.05000       0.00000       0.00000       1.00000       0.01000  
hyd131                 0.00000       0.00000       1.00000       0.95000       0.50000       0.00000       0.00000       0.95000       0.20000       0.05000       0.00000       0.00000       1.00000       0.01000  
hyd132                 0.00000       0.00000       1.00000       0.95000       0.50000       0.00000       0.00000       0.95000       0.20000       0.50000       0.00000       0.00000       1.00000       0.01000  
hyd133                 0.00000       0.00000       1.00000       0.95000       0.50000       0.00000       0.00000       0.95000       0.20000       0.50000       0.00000       0.00000       1.00000       0.01000  
hyd134                 0.00000       0.00000       1.00000       0.95000       0.50000       0.00000       0.00000       0.95000       0.20000       0.50000       0.00000       0.00000       1.00000       0.01000  
hyd135                 0.00000       0.00000       1.00000       0.95000       0.50000       0.00000       0.00000       0.95000       0.20000       0.05000       0.00000       0.00000       1.00000       0.01000  
hyd136                 0.00000       0.00000       1.00000       0.95000       0.50000       0.00000       0.00000       0.95000       0.20000       0.05000       0.00000       0.00000       1.00000       0.01000  
hyd137                 0.00000       0.00000       1.00000       0.95000       0.50000       0.00000       0.00000       0.95000       0.20000       0.05000       0.00000       0.00000       1.00000       0.01000  
hyd138                 0.00000       0.00000       1.00000       0.95000       0.50000       0.00000       0.00000       0.95000       0.20000       0.50000       0.00000       0.00000       1.00000       0.01000  