landuse.lum: written by SWAT+ editor v3.0.4 on 2024-10-15 00:19 for SWAT+ rev.61.0.1
name                         cal_group          plnt_com                                        mgt               cn2         cons_prac             urban            urb_ro           ov_mann              tile               sep               vfs              grww               bmp  
shrb_lum                          null         shrb_comm                                       null        rc_strow_g     up_down_slope              null              null    convtill_nores              null              null              null              null              null  
tuwo_lum                          null         tuwo_comm                                       null        rc_strow_g     up_down_slope              null              null    convtill_nores              null              null              null              null              null  
bsvg_lum                          null         bsvg_comm                                       null        rc_strow_g     up_down_slope              null              null    convtill_nores              null              null              null              null              null  
