ls_unit.ele: written by SWAT+ editor v3.0.4 on 2024-10-15 00:19 for SWAT+ rev.61.0.1
      id  name                   obj_typ  obj_typ_no      bsn_frac      sub_frac      reg_frac  
       1  hru001                     hru           1     1.3778E-2       1.00000       0.00000  
       2  hru002                     hru           2     5.3672E-3       0.45857       0.00000  
       3  hru003                     hru           3     6.3371E-3       0.54143       0.00000  
       4  hru004                     hru           4     1.8093E-3       0.27720       0.00000  
       5  hru005                     hru           5     1.7155E-3       0.26282       0.00000  
       6  hru006                     hru           6     3.0023E-3       0.45998       0.00000  
       7  hru007                     hru           7     5.3116E-3       1.00000       0.00000  
       8  hru008                     hru           8     2.8535E-3       0.73755       0.00000  
       9  hru009                     hru           9     1.0154E-3       0.26245       0.00000  
      10  hru010                     hru          10     4.3178E-3       0.46767       0.00000  
      11  hru011                     hru          11     2.4958E-3       0.27032       0.00000  
      12  hru012                     hru          12     2.4190E-3       0.26200       0.00000  
      13  hru013                     hru          13     1.1533E-3       0.18345       0.00000  
      14  hru014                     hru          14     5.1333E-3       0.81655       0.00000  
      15  hru015                     hru          15     1.5082E-3       0.22015       0.00000  
      16  hru016                     hru          16     5.3426E-3       0.77985       0.00000  
      17  hru017                     hru          17     2.2768E-3       0.20410       0.00000  
      18  hru018                     hru          18     8.8784E-3       0.79590       0.00000  
      19  hru019                     hru          19     1.1178E-3       0.27239       0.00000  
      20  hru020                     hru          20     1.9753E-3       0.48134       0.00000  
      21  hru021                     hru          21     1.0106E-3       0.24627       0.00000  
      22  hru022                     hru          22     1.3805E-3       0.18961       0.00000  
      23  hru023                     hru          23     5.9002E-3       0.81039       0.00000  
      24  hru024                     hru          24     2.2789E-3       0.21263       0.00000  
      25  hru025                     hru          25     8.4389E-3       0.78737       0.00000  
      26  hru026                     hru          26     2.3550E-3       0.78281       0.00000  
      27  hru027                     hru          27     6.5341E-4       0.21719       0.00000  
      28  hru028                     hru          28     6.5432E-3       1.00000       0.00000  
      29  hru029                     hru          29     7.3459E-4       1.00000       0.00000  
      30  hru030                     hru          30     4.5155E-4       1.00000       0.00000  
      31  hru031                     hru          31     5.9088E-3       0.70785       0.00000  
      32  hru032                     hru          32     2.4387E-3       0.29215       0.00000  
      33  hru033                     hru          33     6.1071E-3       0.60315       0.00000  
      34  hru034                     hru          34     4.0182E-3       0.39685       0.00000  
      35  hru035                     hru          35     5.2576E-3       1.00000       0.00000  
      36  hru036                     hru          36     1.6149E-3       0.20896       0.00000  
      37  hru037                     hru          37     1.2048E-3       0.15590       0.00000  
      38  hru038                     hru          38     1.4011E-3       0.18129       0.00000  
      39  hru039                     hru          39     3.5075E-3       0.45385       0.00000  
      40  hru040                     hru          40     3.8076E-3       0.76585       0.00000  
      41  hru041                     hru          41     1.1642E-3       0.23415       0.00000  
      42  hru042                     hru          42     2.0088E-2       1.00000       0.00000  
      43  hru043                     hru          43     4.2987E-3       1.00000       0.00000  
      44  hru044                     hru          44     3.0085E-2       1.00000       0.00000  
      45  hru045                     hru          45     1.2585E-2       0.63642       0.00000  
      46  hru046                     hru          46     7.1896E-3       0.36358       0.00000  
      47  hru047                     hru          47     4.7686E-3       0.74047       0.00000  
      48  hru048                     hru          48     1.6713E-3       0.25953       0.00000  
      49  hru049                     hru          49     6.1863E-3       1.00000       0.00000  
      50  hru050                     hru          50     8.9656E-3       1.00000       0.00000  
      51  hru051                     hru          51     4.8941E-3       1.00000       0.00000  
      52  hru052                     hru          52     7.3600E-3       0.38342       0.00000  
      53  hru053                     hru          53     8.5677E-3       0.44633       0.00000  
      54  hru054                     hru          54     3.2682E-3       0.17026       0.00000  
      55  hru055                     hru          55     2.3132E-3       0.26323       0.00000  
      56  hru056                     hru          56     1.6560E-3       0.18844       0.00000  
      57  hru057                     hru          57     4.8185E-3       0.54833       0.00000  
      58  hru058                     hru          58     3.0318E-3       0.19953       0.00000  
      59  hru059                     hru          59     1.2163E-2       0.80047       0.00000  
      60  hru060                     hru          60     2.0546E-3       0.28989       0.00000  
      61  hru061                     hru          61     2.8678E-3       0.40463       0.00000  
      62  hru062                     hru          62     2.1651E-3       0.30548       0.00000  
      63  hru063                     hru          63     2.6649E-3       0.21541       0.00000  
      64  hru064                     hru          64     9.7067E-3       0.78459       0.00000  
      65  hru065                     hru          65     6.5855E-4       0.17634       0.00000  
      66  hru066                     hru          66     3.0759E-3       0.82366       0.00000  
      67  hru067                     hru          67     8.7858E-3       1.00000       0.00000  
      68  hru068                     hru          68     4.1198E-3       1.00000       0.00000  
      69  hru069                     hru          69     6.7836E-3       1.00000       0.00000  
      70  hru070                     hru          70     3.8083E-3       1.00000       0.00000  
      71  hru071                     hru          71     2.0722E-3       1.00000       0.00000  
      72  hru072                     hru          72     2.4707E-3       1.00000       0.00000  
      73  hru073                     hru          73     7.6498E-3       1.00000       0.00000  
      74  hru074                     hru          74     1.0508E-2       1.00000       0.00000  
      75  hru075                     hru          75     1.8669E-3       0.16778       0.00000  
      76  hru076                     hru          76     9.2599E-3       0.83222       0.00000  
      77  hru077                     hru          77     4.7247E-3       1.00000       0.00000  
      78  hru078                     hru          78     1.4746E-2       1.00000       0.00000  
      79  hru079                     hru          79     3.7457E-3       0.82485       0.00000  
      80  hru080                     hru          80     7.9537E-4       0.17515       0.00000  
      81  hru081                     hru          81     5.7149E-3       1.00000       0.00000  
      82  hru082                     hru          82     4.7729E-3       0.71013       0.00000  
      83  hru083                     hru          83     1.9483E-3       0.28987       0.00000  
      84  hru084                     hru          84     6.4214E-4       0.16074       0.00000  
      85  hru085                     hru          85     2.6210E-3       0.65610       0.00000  
      86  hru086                     hru          86     7.3169E-4       0.18316       0.00000  
      87  hru087                     hru          87     3.9530E-3       0.41871       0.00000  
      88  hru088                     hru          88     5.4879E-3       0.58129       0.00000  
      89  hru089                     hru          89     1.5175E-3       0.24591       0.00000  
      90  hru090                     hru          90     4.6536E-3       0.75409       0.00000  
      91  hru091                     hru          91     3.3230E-3       0.84830       0.00000  
      92  hru092                     hru          92     5.9424E-4       0.15170       0.00000  
      93  hru093                     hru          93     1.6500E-3       0.20532       0.00000  
      94  hru094                     hru          94     6.3861E-3       0.79468       0.00000  
      95  hru095                     hru          95     4.7046E-3       0.73988       0.00000  
      96  hru096                     hru          96     1.6540E-3       0.26012       0.00000  
      97  hru097                     hru          97     1.5636E-3       0.22717       0.00000  
      98  hru098                     hru          98     5.3194E-3       0.77283       0.00000  
      99  hru099                     hru          99     2.9223E-3       0.42189       0.00000  
     100  hru100                     hru         100     4.0043E-3       0.57811       0.00000  
     101  hru101                     hru         101     4.7544E-3       0.69246       0.00000  
     102  hru102                     hru         102     2.1115E-3       0.30754       0.00000  
     103  hru103                     hru         103     4.7143E-4       1.00000       0.00000  
     104  hru104                     hru         104     6.4021E-3       1.00000       0.00000  
     105  hru105                     hru         105     2.5828E-3       0.63717       0.00000  
     106  hru106                     hru         106     1.4707E-3       0.36283       0.00000  
     107  hru107                     hru         107     3.3597E-3       0.74017       0.00000  
     108  hru108                     hru         108     1.1794E-3       0.25983       0.00000  
     109  hru109                     hru         109     1.0460E-2       1.00000       0.00000  
     110  hru110                     hru         110     1.0728E-2       1.00000       0.00000  
     111  hru111                     hru         111     2.0524E-3       0.79128       0.00000  
     112  hru112                     hru         112     5.4137E-4       0.20872       0.00000  
     113  hru113                     hru         113     1.2344E-3       0.26726       0.00000  
     114  hru114                     hru         114     1.3335E-3       0.28871       0.00000  
     115  hru115                     hru         115     2.0508E-3       0.44403       0.00000  
     116  hru116                     hru         116     3.0205E-3       0.59663       0.00000  
     117  hru117                     hru         117     8.2565E-4       0.16309       0.00000  
     118  hru118                     hru         118     1.2165E-3       0.24029       0.00000  
     119  hru119                     hru         119     1.7663E-3       0.30683       0.00000  
     120  hru120                     hru         120     1.7697E-3       0.30743       0.00000  
     121  hru121                     hru         121     2.2205E-3       0.38574       0.00000  
     122  hru122                     hru         122     7.4558E-4       0.17530       0.00000  
     123  hru123                     hru         123     1.3501E-3       0.31743       0.00000  
     124  hru124                     hru         124     2.1576E-3       0.50728       0.00000  
     125  hru125                     hru         125     1.1061E-3       0.17359       0.00000  
     126  hru126                     hru         126     2.1548E-3       0.33818       0.00000  
     127  hru127                     hru         127     1.0278E-3       0.16131       0.00000  
     128  hru128                     hru         128     2.0831E-3       0.32692       0.00000  
     129  hru129                     hru         129     4.6849E-3       0.28597       0.00000  
     130  hru130                     hru         130     7.3876E-3       0.45094       0.00000  
     131  hru131                     hru         131     4.3101E-3       0.26309       0.00000  
     132  hru132                     hru         132     1.4165E-3       0.17162       0.00000  
     133  hru133                     hru         133     2.2378E-3       0.27112       0.00000  
     134  hru134                     hru         134     2.0863E-3       0.25277       0.00000  
     135  hru135                     hru         135     1.1925E-3       0.14448       0.00000  
     136  hru136                     hru         136     2.1290E-3       0.25794       0.00000  
     137  hru137                     hru         137     1.1565E-3       0.20735       0.00000  
     138  hru138                     hru         138     9.3024E-4       0.16678       0.00000  
     139  hru139                     hru         139     1.0018E-3       0.17961       0.00000  
     140  hru140                     hru         140     2.4890E-3       0.44626       0.00000  
     141  hru141                     hru         141     8.9513E-4       0.17757       0.00000  
     142  hru142                     hru         142     8.6898E-4       0.17239       0.00000  
     143  hru143                     hru         143     1.2014E-3       0.23833       0.00000  
     144  hru144                     hru         144     8.0549E-4       0.15979       0.00000  
     145  hru145                     hru         145     1.2699E-3       0.25191       0.00000  
     146  hru146                     hru         146     1.0420E-3       0.16769       0.00000  
     147  hru147                     hru         147     1.1585E-3       0.18644       0.00000  
     148  hru148                     hru         148     1.2542E-3       0.20185       0.00000  
     149  hru149                     hru         149     1.0356E-3       0.16667       0.00000  
     150  hru150                     hru         150     1.7234E-3       0.27735       0.00000  
     151  hru151                     hru         151     4.7338E-3       0.24759       0.00000  
     152  hru152                     hru         152     4.2459E-3       0.22207       0.00000  
     153  hru153                     hru         153     5.7068E-3       0.29849       0.00000  
     154  hru154                     hru         154     4.4328E-3       0.23185       0.00000  
     155  hru155                     hru         155     8.0025E-4       0.45498       0.00000  
     156  hru156                     hru         156     3.9588E-4       0.22508       0.00000  
     157  hru157                     hru         157     5.6272E-4       0.31994       0.00000  
     158  hru158                     hru         158     1.4903E-3       0.28701       0.00000  
     159  hru159                     hru         159     1.2460E-3       0.23997       0.00000  
     160  hru160                     hru         160     2.4561E-3       0.47302       0.00000  
     161  hru161                     hru         161     3.2260E-3       0.64482       0.00000  
     162  hru162                     hru         162     8.5237E-4       0.17037       0.00000  
     163  hru163                     hru         163     9.2461E-4       0.18481       0.00000  
     164  hru164                     hru         164     1.2912E-3       1.00000       0.00000  
     165  hru165                     hru         165     2.2577E-4       0.21505       0.00000  
     166  hru166                     hru         166     3.6374E-4       0.34648       0.00000  
     167  hru167                     hru         167     2.9224E-4       0.27838       0.00000  
     168  hru168                     hru         168     1.6807E-4       0.16010       0.00000  
     169  hru169                     hru         169     4.5420E-3       1.00000       0.00000  
     170  hru170                     hru         170     2.0952E-3       0.43018       0.00000  
     171  hru171                     hru         171     1.0603E-3       0.21769       0.00000  
     172  hru172                     hru         172     1.7150E-3       0.35212       0.00000  
     173  hru173                     hru         173     3.4665E-3       0.17146       0.00000  
     174  hru174                     hru         174     3.5020E-3       0.17322       0.00000  
     175  hru175                     hru         175     1.3249E-2       0.65532       0.00000  
     176  hru176                     hru         176     6.9071E-4       0.17476       0.00000  
     177  hru177                     hru         177     2.5349E-3       0.64138       0.00000  
     178  hru178                     hru         178     7.2662E-4       0.18385       0.00000  
     179  hru179                     hru         179     2.8671E-3       0.53949       0.00000  
     180  hru180                     hru         180     1.5414E-3       0.29003       0.00000  
     181  hru181                     hru         181     9.0600E-4       0.17048       0.00000  
     182  hru182                     hru         182     1.1438E-2       1.00000       0.00000  
     183  hru183                     hru         183     1.8324E-3       0.20013       0.00000  
     184  hru184                     hru         184     4.8176E-3       0.52618       0.00000  
     185  hru185                     hru         185     2.5059E-3       0.27369       0.00000  
     186  hru186                     hru         186     1.5632E-3       0.23966       0.00000  
     187  hru187                     hru         187     3.4975E-3       0.53623       0.00000  
     188  hru188                     hru         188     1.4617E-3       0.22411       0.00000  
     189  hru189                     hru         189     2.7371E-3       0.19920       0.00000  
     190  hru190                     hru         190     7.1825E-3       0.52273       0.00000  
     191  hru191                     hru         191     3.8209E-3       0.27807       0.00000  
     192  hru192                     hru         192     4.0715E-3       1.00000       0.00000  
     193  hru193                     hru         193     4.1027E-3       1.00000       0.00000  
     194  hru194                     hru         194     1.0609E-3       0.15416       0.00000  
     195  hru195                     hru         195     5.8211E-3       0.84584       0.00000  
     196  hru196                     hru         196     4.5903E-3       1.00000       0.00000  
     197  hru197                     hru         197     1.4945E-2       1.00000       0.00000  
     198  hru198                     hru         198     5.5806E-3       0.80778       0.00000  
     199  hru199                     hru         199     1.3280E-3       0.19222       0.00000  
     200  hru200                     hru         200     6.4797E-3       1.00000       0.00000  
     201  hru201                     hru         201     4.3668E-3       0.80533       0.00000  
     202  hru202                     hru         202     1.0556E-3       0.19467       0.00000  
     203  hru203                     hru         203     5.5795E-3       1.00000       0.00000  
     204  hru204                     hru         204     5.0943E-3       0.39795       0.00000  
     205  hru205                     hru         205     7.7071E-3       0.60205       0.00000  
     206  hru206                     hru         206     5.6230E-4       1.00000       0.00000  
     207  hru207                     hru         207     2.1186E-3       1.00000       0.00000  
     208  hru208                     hru         208     4.9093E-3       1.00000       0.00000  
     209  hru209                     hru         209     3.1239E-4       1.00000       0.00000  
     210  hru210                     hru         210     7.2468E-3       0.68065       0.00000  
     211  hru211                     hru         211     3.4000E-3       0.31935       0.00000  
     212  hru212                     hru         212     1.8908E-3       0.18368       0.00000  
     213  hru213                     hru         213     2.8053E-3       0.27252       0.00000  
     214  hru214                     hru         214     5.5977E-3       0.54380       0.00000  
     215  hru215                     hru         215     8.9442E-3       0.80894       0.00000  
     216  hru216                     hru         216     2.1125E-3       0.19106       0.00000  
     217  hru217                     hru         217     9.4153E-3       1.00000       0.00000  
     218  hru218                     hru         218     1.1558E-2       1.00000       0.00000  
     219  hru219                     hru         219     4.2599E-6       0.50000       0.00000  
     220  hru220                     hru         220     4.2599E-6       0.50000       0.00000  
     221  hru221                     hru         221     2.1447E-3       0.31121       0.00000  
     222  hru222                     hru         222     4.7468E-3       0.68879       0.00000  
     223  hru223                     hru         223     1.7040E-3       0.22588       0.00000  
     224  hru224                     hru         224     3.4184E-3       0.45314       0.00000  
     225  hru225                     hru         225     2.4214E-3       0.32098       0.00000  
     226  hru226                     hru         226     1.6580E-3       0.21294       0.00000  
     227  hru227                     hru         227     4.5936E-3       0.58997       0.00000  
     228  hru228                     hru         228     1.5345E-3       0.19708       0.00000  
     229  hru229                     hru         229     4.7632E-3       0.40448       0.00000  
     230  hru230                     hru         230     3.9056E-3       0.33165       0.00000  
     231  hru231                     hru         231     3.1074E-3       0.26387       0.00000  
     232  hru232                     hru         232     2.2099E-3       0.18347       0.00000  
     233  hru233                     hru         233     3.6086E-3       0.29959       0.00000  
     234  hru234                     hru         234     3.9341E-3       0.32661       0.00000  
     235  hru235                     hru         235     2.2925E-3       0.19033       0.00000  
     236  hru236                     hru         236     6.3662E-3       1.00000       0.00000  
     237  hru237                     hru         237     1.4673E-4       1.00000       0.00000  
     238  hru238                     hru         238     6.8824E-3       0.54321       0.00000  
     239  hru239                     hru         239     2.5434E-3       0.20074       0.00000  
     240  hru240                     hru         240     3.2441E-3       0.25605       0.00000  
     241  hru241                     hru         241     1.1068E-3       0.18761       0.00000  
     242  hru242                     hru         242     4.7927E-3       0.81239       0.00000  
     243  hru243                     hru         243     1.5889E-2       1.00000       0.00000  
     244  hru244                     hru         244     3.7459E-3       1.00000       0.00000  
     245  hru245                     hru         245     5.2217E-3       1.00000       0.00000  
     246  hru246                     hru         246     5.3570E-3       1.00000       0.00000  
     247  hru247                     hru         247     4.4416E-4       0.63576       0.00000  
     248  hru248                     hru         248     1.4921E-4       0.21358       0.00000  
     249  hru249                     hru         249     1.0526E-4       0.15066       0.00000  
     250  hru250                     hru         250     7.2056E-4       0.75439       0.00000  
     251  hru251                     hru         251     2.3460E-4       0.24561       0.00000  
     252  hru252                     hru         252     4.5431E-3       0.17831       0.00000  
     253  hru253                     hru         253     1.7522E-2       0.68772       0.00000  
     254  hru254                     hru         254     4.3417E-3       0.17040       0.00000  
     255  hru255                     hru         255     7.4217E-4       1.00000       0.00000  
     256  hru256                     hru         256     6.9512E-3       1.00000       0.00000  
     257  hru257                     hru         257     1.7644E-3       0.18466       0.00000  
     258  hru258                     hru         258     7.7901E-3       0.81534       0.00000  
     259  hru259                     hru         259     1.0924E-2       0.82108       0.00000  
     260  hru260                     hru         260     2.3804E-3       0.17892       0.00000  
     261  hru261                     hru         261     1.6052E-3       0.35955       0.00000  
     262  hru262                     hru         262     9.9668E-4       0.22325       0.00000  
     263  hru263                     hru         263     1.8625E-3       0.41720       0.00000  
     264  hru264                     hru         264     5.9273E-3       0.52915       0.00000  
     265  hru265                     hru         265     2.9079E-3       0.25960       0.00000  
     266  hru266                     hru         266     2.3664E-3       0.21126       0.00000  
     267  hru267                     hru         267     9.2249E-4       0.18362       0.00000  
     268  hru268                     hru         268     4.1013E-3       0.81638       0.00000  
     269  hru269                     hru         269     3.6625E-3       1.00000       0.00000  
     270  hru270                     hru         270     1.2962E-4       0.23326       0.00000  
     271  hru271                     hru         271     4.2606E-4       0.76674       0.00000  
