ls_unit.def: written by SWAT+ editor v3.0.4 on 2024-10-15 00:19 for SWAT+ rev.61.0.1
135
      id              name          area  elem_tot  elements  
       1           rtu0010     286.02000         2        26       -27  
       2           rtu0020    1018.98000         2        24       -25  
       3           rtu0030     692.19000         2        22       -23  
       4           rtu0040    1309.95000         1         1  
       5           rtu0050     390.15000         2        19       -21  
       6           rtu0060     877.77000         2        10       -12  
       7           rtu0070     504.99000         1         7  
       8           rtu0080    1112.76000         2         2        -3  
       9           rtu0090     499.86000         1        35  
      10           rtu0100     962.64000         2        33       -34  
      11           rtu0110     793.62000         2        31       -32  
      12           rtu0120     622.08000         1        28  
      13           rtu0130    1825.02000         2        52       -54  
      14           rtu0140     465.30000         1        51  
      15           rtu0150     852.39000         1        50  
      16           rtu0160     588.15000         1        49  
      17           rtu0170      42.93000         1        30  
      18           rtu0180     612.27000         2        47       -48  
      19           rtu0190     734.76000         2        36       -39  
      20           rtu0200     472.68000         2        40       -41  
      21           rtu0210    1909.80000         1        42  
      22           rtu0220    2860.29000         1        44  
      23           rtu0230    1060.56000         2        17       -18  
      24           rtu0240      69.84000         1        29  
      25           rtu0250    1880.01000         2        45       -46  
      26           rtu0260     408.69000         1        43  
      27           rtu0270     651.33000         2        15       -16  
      28           rtu0280     597.69000         2        13       -14  
      29           rtu0290     367.83000         2         8        -9  
      30           rtu0300     620.55000         2         4        -6  
      31           rtu0310       0.81000         2       219      -220  
      32           rtu0320    1098.90000         1       218  
      33           rtu0330     895.14000         1       217  
      34           rtu0340      53.46000         1       206  
      35           rtu0350    1012.23000         2       210      -211  
      36           rtu0360    1019.97000         1       110  
      37           rtu0370     994.50000         1       109  
      38           rtu0380     658.53000         2        99      -100  
      39           rtu0390     727.29000         1        73  
      40           rtu0400     543.33000         1        81  
      41           rtu0410     234.90000         1        72  
      42           rtu0420     197.01000         1        71  
      43           rtu0430     431.73000         2        79       -80  
      44           rtu0440     978.66000         2       212      -214  
      45           rtu0450    1217.07000         2       204      -205  
      46           rtu0460    1051.20000         2       215      -216  
      47           rtu0470    1444.59000         2        58       -59  
      48           rtu0480    1176.21000         2        63       -64  
      49           rtu0490    1401.93000         1        78  
      50           rtu0500     586.71000         2        89       -90  
      51           rtu0510     608.67000         1       104  
      52           rtu0520     362.07000         1        70  
      53           rtu0530      44.82000         1       103  
      54           rtu0540     652.77000         2       101      -102  
      55           rtu0550     644.94000         1        69  
      56           rtu0560     391.68000         1        68  
      57           rtu0570     604.53000         2        95       -96  
      58           rtu0580     835.29000         1        67  
      59           rtu0590     436.41000         1       196  
      60           rtu0600     764.01000         2        93       -94  
      61           rtu0610     654.30000         2       194      -195  
      62           rtu0620     372.42000         2        91       -92  
      63           rtu0630     897.57000         2        87       -88  
      64           rtu0640     355.05000         2        65       -66  
      65           rtu0650     673.83000         2        60       -62  
      66           rtu0660     639.00000         2        82       -83  
      67           rtu0670     449.19000         1        77  
      68           rtu0680     835.47000         2        55       -57  
      69           rtu0690    1057.86000         2        75       -76  
      70           rtu0700      29.70000         1       209  
      71           rtu0710     466.74000         1       208  
      72           rtu0720     201.42000         1       207  
      73           rtu0730      90.81000         2       250      -251  
      74           rtu0740      66.42000         2       247      -249  
      75           rtu0750     509.31000         1       246  
      76           rtu0760     660.87000         1       256  
      77           rtu0770      70.56000         1       255  
      78           rtu0780    1510.65000         1       243  
      79           rtu0790     431.55000         2       107      -108  
      80           rtu0800     385.38000         2       105      -106  
      81           rtu0810     246.60000         2       111      -112  
      82           rtu0820    1087.47000         1       182  
      83           rtu0830     999.00000         1        74  
      84           rtu0840     560.88000         2       241      -242  
      85           rtu0850     620.10000         2       186      -188  
      86           rtu0860      52.83000         2       270      -271  
      87           rtu0870     348.21000         1       269  
      88           rtu0880     870.48000         2       183      -185  
      89           rtu0890    1204.56000         2       238      -240  
      90           rtu0900    2422.35000         2       252      -254  
      91           rtu0910     477.63000         2       267      -268  
      92           rtu0920     655.20000         2       221      -222  
      93           rtu0930    1264.86000         2       259      -260  
      94           rtu0940    1119.60000         2       229      -231  
      95           rtu0950     908.37000         2       257      -258  
      96           rtu0960    1557.54000         2       129      -131  
      97           rtu0970     530.46000         1       203  
      98           rtu0980     493.65000         2       158      -160  
      99           rtu0990     654.39000         2        97       -98  
     100           rtu1000      13.95000         1       237  
     101           rtu1010     605.25000         1       236  
     102           rtu1020     515.52000         2       201      -202  
     103           rtu1030      99.81000         2       165      -168  
     104           rtu1040     616.05000         1       200  
     105           rtu1050     656.82000         2       198      -199  
     106           rtu1060    1420.83000         1       197  
     107           rtu1070     479.25000         2       141      -145  
     108           rtu1080     496.44000         1       245  
     109           rtu1090    1145.16000         2       232      -235  
     110           rtu1100     390.06000         1       193  
     111           rtu1110     356.13000         1       244  
     112           rtu1120     404.37000         2       122      -124  
     113           rtu1130     379.80000         2        84       -86  
     114           rtu1140     740.25000         2       226      -228  
     115           rtu1150     717.21000         2       223      -225  
     116           rtu1160     439.11000         2       113      -115  
     117           rtu1170     387.09000         1       192  
     118           rtu1180     505.26000         2       179      -181  
     119           rtu1190     375.75000         2       176      -178  
     120           rtu1200    1922.13000         2       173      -175  
     121           rtu1210     463.05000         2       170      -172  
     122           rtu1220     431.82000         1       169  
     123           rtu1230     122.76000         1       164  
     124           rtu1240    1306.35000         2       189      -191  
     125           rtu1250     475.65000         2       161      -163  
     126           rtu1260     167.22000         2       155      -157  
     127           rtu1270    1817.73000         2       151      -154  
     128           rtu1280     590.76000         2       146      -150  
     129           rtu1290     530.28000         2       137      -140  
     130           rtu1300     784.71000         2       132      -136  
     131           rtu1310    1064.97000         2       264      -266  
     132           rtu1320     605.79000         2       125      -128  
     133           rtu1330     424.44000         2       261      -263  
     134           rtu1340     547.29000         2       119      -121  
     135           rtu1350     481.32000         2       116      -118  
