object.cnt: written by SWAT+ editor v3.0.4 on 2024-10-15 00:19 for SWAT+ rev.61.0.1
name                   ls_area      tot_area       obj       hru      lhru       rtu      gwfl       aqu       cha       res       rec      exco       dlr       can       pmp       out      lcha     aqu2d       hrd       wro  
Prueba3            95073.12000   95073.12000       555       271         0       135         0        14         0         0         0         0         0         0         0         0       135         0         0         0  
