pcp.cli: Precipitation file names - file written by SWAT+ editor 2024-10-15 00:18:57.086220
filename
chalacopcp.pcp
