plant.ini: written by SWAT+ editor v3.0.4 on 2024-10-15 00:19 for SWAT+ rev.61.0.1
pcom_name          plt_cnt  rot_yr_ini          plt_name     lc_status      lai_init       bm_init      phu_init      plnt_pop      yrs_init      rsd_init  
shrb_comm                1         1  
                                        shrb             n       0.00000       0.00000       0.00000       0.00000       0.00000   10000.00000  
tuwo_comm                1         1  
                                        tuwo             n       0.00000       0.00000       0.00000       0.00000       0.00000   10000.00000  
bsvg_comm                1         1  
                                        bsvg             n       0.00000       0.00000       0.00000       0.00000       0.00000   10000.00000  
