rout_unit.ele: written by SWAT+ editor v3.0.4 on 2024-10-15 00:19 for SWAT+ rev.61.0.1
      id  name                   obj_typ    obj_id          frac               dlr  
       1  hru001                     hru         1     1.0000E+0                 0  
       2  hru002                     hru         2     4.5857E-1                 0  
       3  hru003                     hru         3     5.4143E-1                 0  
       4  hru004                     hru         4     2.7720E-1                 0  
       5  hru005                     hru         5     2.6282E-1                 0  
       6  hru006                     hru         6     4.5998E-1                 0  
       7  hru007                     hru         7     1.0000E+0                 0  
       8  hru008                     hru         8     7.3755E-1                 0  
       9  hru009                     hru         9     2.6245E-1                 0  
      10  hru010                     hru        10     4.6767E-1                 0  
      11  hru011                     hru        11     2.7032E-1                 0  
      12  hru012                     hru        12     2.6200E-1                 0  
      13  hru013                     hru        13     1.8345E-1                 0  
      14  hru014                     hru        14     8.1655E-1                 0  
      15  hru015                     hru        15     2.2015E-1                 0  
      16  hru016                     hru        16     7.7985E-1                 0  
      17  hru017                     hru        17     2.0410E-1                 0  
      18  hru018                     hru        18     7.9590E-1                 0  
      19  hru019                     hru        19     2.7239E-1                 0  
      20  hru020                     hru        20     4.8134E-1                 0  
      21  hru021                     hru        21     2.4627E-1                 0  
      22  hru022                     hru        22     1.8961E-1                 0  
      23  hru023                     hru        23     8.1039E-1                 0  
      24  hru024                     hru        24     2.1263E-1                 0  
      25  hru025                     hru        25     7.8737E-1                 0  
      26  hru026                     hru        26     7.8281E-1                 0  
      27  hru027                     hru        27     2.1719E-1                 0  
      28  hru028                     hru        28     1.0000E+0                 0  
      29  hru029                     hru        29     1.0000E+0                 0  
      30  hru030                     hru        30     1.0000E+0                 0  
      31  hru031                     hru        31     7.0785E-1                 0  
      32  hru032                     hru        32     2.9215E-1                 0  
      33  hru033                     hru        33     6.0315E-1                 0  
      34  hru034                     hru        34     3.9685E-1                 0  
      35  hru035                     hru        35     1.0000E+0                 0  
      36  hru036                     hru        36     2.0896E-1                 0  
      37  hru037                     hru        37     1.5590E-1                 0  
      38  hru038                     hru        38     1.8129E-1                 0  
      39  hru039                     hru        39     4.5385E-1                 0  
      40  hru040                     hru        40     7.6585E-1                 0  
      41  hru041                     hru        41     2.3415E-1                 0  
      42  hru042                     hru        42     1.0000E+0                 0  
      43  hru043                     hru        43     1.0000E+0                 0  
      44  hru044                     hru        44     1.0000E+0                 0  
      45  hru045                     hru        45     6.3642E-1                 0  
      46  hru046                     hru        46     3.6358E-1                 0  
      47  hru047                     hru        47     7.4047E-1                 0  
      48  hru048                     hru        48     2.5953E-1                 0  
      49  hru049                     hru        49     1.0000E+0                 0  
      50  hru050                     hru        50     1.0000E+0                 0  
      51  hru051                     hru        51     1.0000E+0                 0  
      52  hru052                     hru        52     3.8342E-1                 0  
      53  hru053                     hru        53     4.4633E-1                 0  
      54  hru054                     hru        54     1.7026E-1                 0  
      55  hru055                     hru        55     2.6323E-1                 0  
      56  hru056                     hru        56     1.8844E-1                 0  
      57  hru057                     hru        57     5.4833E-1                 0  
      58  hru058                     hru        58     1.9953E-1                 0  
      59  hru059                     hru        59     8.0047E-1                 0  
      60  hru060                     hru        60     2.8989E-1                 0  
      61  hru061                     hru        61     4.0463E-1                 0  
      62  hru062                     hru        62     3.0548E-1                 0  
      63  hru063                     hru        63     2.1541E-1                 0  
      64  hru064                     hru        64     7.8459E-1                 0  
      65  hru065                     hru        65     1.7634E-1                 0  
      66  hru066                     hru        66     8.2366E-1                 0  
      67  hru067                     hru        67     1.0000E+0                 0  
      68  hru068                     hru        68     1.0000E+0                 0  
      69  hru069                     hru        69     1.0000E+0                 0  
      70  hru070                     hru        70     1.0000E+0                 0  
      71  hru071                     hru        71     1.0000E+0                 0  
      72  hru072                     hru        72     1.0000E+0                 0  
      73  hru073                     hru        73     1.0000E+0                 0  
      74  hru074                     hru        74     1.0000E+0                 0  
      75  hru075                     hru        75     1.6778E-1                 0  
      76  hru076                     hru        76     8.3222E-1                 0  
      77  hru077                     hru        77     1.0000E+0                 0  
      78  hru078                     hru        78     1.0000E+0                 0  
      79  hru079                     hru        79     8.2485E-1                 0  
      80  hru080                     hru        80     1.7515E-1                 0  
      81  hru081                     hru        81     1.0000E+0                 0  
      82  hru082                     hru        82     7.1013E-1                 0  
      83  hru083                     hru        83     2.8987E-1                 0  
      84  hru084                     hru        84     1.6074E-1                 0  
      85  hru085                     hru        85     6.5610E-1                 0  
      86  hru086                     hru        86     1.8316E-1                 0  
      87  hru087                     hru        87     4.1871E-1                 0  
      88  hru088                     hru        88     5.8129E-1                 0  
      89  hru089                     hru        89     2.4591E-1                 0  
      90  hru090                     hru        90     7.5409E-1                 0  
      91  hru091                     hru        91     8.4830E-1                 0  
      92  hru092                     hru        92     1.5170E-1                 0  
      93  hru093                     hru        93     2.0532E-1                 0  
      94  hru094                     hru        94     7.9468E-1                 0  
      95  hru095                     hru        95     7.3988E-1                 0  
      96  hru096                     hru        96     2.6012E-1                 0  
      97  hru097                     hru        97     2.2717E-1                 0  
      98  hru098                     hru        98     7.7283E-1                 0  
      99  hru099                     hru        99     4.2189E-1                 0  
     100  hru100                     hru       100     5.7811E-1                 0  
     101  hru101                     hru       101     6.9246E-1                 0  
     102  hru102                     hru       102     3.0754E-1                 0  
     103  hru103                     hru       103     1.0000E+0                 0  
     104  hru104                     hru       104     1.0000E+0                 0  
     105  hru105                     hru       105     6.3717E-1                 0  
     106  hru106                     hru       106     3.6283E-1                 0  
     107  hru107                     hru       107     7.4017E-1                 0  
     108  hru108                     hru       108     2.5983E-1                 0  
     109  hru109                     hru       109     1.0000E+0                 0  
     110  hru110                     hru       110     1.0000E+0                 0  
     111  hru111                     hru       111     7.9128E-1                 0  
     112  hru112                     hru       112     2.0872E-1                 0  
     113  hru113                     hru       113     2.6726E-1                 0  
     114  hru114                     hru       114     2.8871E-1                 0  
     115  hru115                     hru       115     4.4403E-1                 0  
     116  hru116                     hru       116     5.9663E-1                 0  
     117  hru117                     hru       117     1.6309E-1                 0  
     118  hru118                     hru       118     2.4029E-1                 0  
     119  hru119                     hru       119     3.0683E-1                 0  
     120  hru120                     hru       120     3.0743E-1                 0  
     121  hru121                     hru       121     3.8574E-1                 0  
     122  hru122                     hru       122     1.7530E-1                 0  
     123  hru123                     hru       123     3.1743E-1                 0  
     124  hru124                     hru       124     5.0728E-1                 0  
     125  hru125                     hru       125     1.7359E-1                 0  
     126  hru126                     hru       126     3.3818E-1                 0  
     127  hru127                     hru       127     1.6131E-1                 0  
     128  hru128                     hru       128     3.2692E-1                 0  
     129  hru129                     hru       129     2.8597E-1                 0  
     130  hru130                     hru       130     4.5094E-1                 0  
     131  hru131                     hru       131     2.6309E-1                 0  
     132  hru132                     hru       132     1.7162E-1                 0  
     133  hru133                     hru       133     2.7112E-1                 0  
     134  hru134                     hru       134     2.5277E-1                 0  
     135  hru135                     hru       135     1.4448E-1                 0  
     136  hru136                     hru       136     2.5794E-1                 0  
     137  hru137                     hru       137     2.0735E-1                 0  
     138  hru138                     hru       138     1.6678E-1                 0  
     139  hru139                     hru       139     1.7961E-1                 0  
     140  hru140                     hru       140     4.4626E-1                 0  
     141  hru141                     hru       141     1.7757E-1                 0  
     142  hru142                     hru       142     1.7239E-1                 0  
     143  hru143                     hru       143     2.3833E-1                 0  
     144  hru144                     hru       144     1.5979E-1                 0  
     145  hru145                     hru       145     2.5191E-1                 0  
     146  hru146                     hru       146     1.6769E-1                 0  
     147  hru147                     hru       147     1.8644E-1                 0  
     148  hru148                     hru       148     2.0185E-1                 0  
     149  hru149                     hru       149     1.6667E-1                 0  
     150  hru150                     hru       150     2.7735E-1                 0  
     151  hru151                     hru       151     2.4759E-1                 0  
     152  hru152                     hru       152     2.2207E-1                 0  
     153  hru153                     hru       153     2.9849E-1                 0  
     154  hru154                     hru       154     2.3185E-1                 0  
     155  hru155                     hru       155     4.5498E-1                 0  
     156  hru156                     hru       156     2.2508E-1                 0  
     157  hru157                     hru       157     3.1994E-1                 0  
     158  hru158                     hru       158     2.8701E-1                 0  
     159  hru159                     hru       159     2.3997E-1                 0  
     160  hru160                     hru       160     4.7302E-1                 0  
     161  hru161                     hru       161     6.4482E-1                 0  
     162  hru162                     hru       162     1.7037E-1                 0  
     163  hru163                     hru       163     1.8481E-1                 0  
     164  hru164                     hru       164     1.0000E+0                 0  
     165  hru165                     hru       165     2.1505E-1                 0  
     166  hru166                     hru       166     3.4648E-1                 0  
     167  hru167                     hru       167     2.7838E-1                 0  
     168  hru168                     hru       168     1.6010E-1                 0  
     169  hru169                     hru       169     1.0000E+0                 0  
     170  hru170                     hru       170     4.3018E-1                 0  
     171  hru171                     hru       171     2.1769E-1                 0  
     172  hru172                     hru       172     3.5212E-1                 0  
     173  hru173                     hru       173     1.7146E-1                 0  
     174  hru174                     hru       174     1.7322E-1                 0  
     175  hru175                     hru       175     6.5532E-1                 0  
     176  hru176                     hru       176     1.7476E-1                 0  
     177  hru177                     hru       177     6.4138E-1                 0  
     178  hru178                     hru       178     1.8385E-1                 0  
     179  hru179                     hru       179     5.3949E-1                 0  
     180  hru180                     hru       180     2.9003E-1                 0  
     181  hru181                     hru       181     1.7048E-1                 0  
     182  hru182                     hru       182     1.0000E+0                 0  
     183  hru183                     hru       183     2.0013E-1                 0  
     184  hru184                     hru       184     5.2618E-1                 0  
     185  hru185                     hru       185     2.7369E-1                 0  
     186  hru186                     hru       186     2.3966E-1                 0  
     187  hru187                     hru       187     5.3623E-1                 0  
     188  hru188                     hru       188     2.2411E-1                 0  
     189  hru189                     hru       189     1.9920E-1                 0  
     190  hru190                     hru       190     5.2273E-1                 0  
     191  hru191                     hru       191     2.7807E-1                 0  
     192  hru192                     hru       192     1.0000E+0                 0  
     193  hru193                     hru       193     1.0000E+0                 0  
     194  hru194                     hru       194     1.5416E-1                 0  
     195  hru195                     hru       195     8.4584E-1                 0  
     196  hru196                     hru       196     1.0000E+0                 0  
     197  hru197                     hru       197     1.0000E+0                 0  
     198  hru198                     hru       198     8.0778E-1                 0  
     199  hru199                     hru       199     1.9222E-1                 0  
     200  hru200                     hru       200     1.0000E+0                 0  
     201  hru201                     hru       201     8.0533E-1                 0  
     202  hru202                     hru       202     1.9467E-1                 0  
     203  hru203                     hru       203     1.0000E+0                 0  
     204  hru204                     hru       204     3.9795E-1                 0  
     205  hru205                     hru       205     6.0205E-1                 0  
     206  hru206                     hru       206     1.0000E+0                 0  
     207  hru207                     hru       207     1.0000E+0                 0  
     208  hru208                     hru       208     1.0000E+0                 0  
     209  hru209                     hru       209     1.0000E+0                 0  
     210  hru210                     hru       210     6.8065E-1                 0  
     211  hru211                     hru       211     3.1935E-1                 0  
     212  hru212                     hru       212     1.8368E-1                 0  
     213  hru213                     hru       213     2.7252E-1                 0  
     214  hru214                     hru       214     5.4380E-1                 0  
     215  hru215                     hru       215     8.0894E-1                 0  
     216  hru216                     hru       216     1.9106E-1                 0  
     217  hru217                     hru       217     1.0000E+0                 0  
     218  hru218                     hru       218     1.0000E+0                 0  
     219  hru219                     hru       219     5.0000E-1                 0  
     220  hru220                     hru       220     5.0000E-1                 0  
     221  hru221                     hru       221     3.1121E-1                 0  
     222  hru222                     hru       222     6.8879E-1                 0  
     223  hru223                     hru       223     2.2588E-1                 0  
     224  hru224                     hru       224     4.5314E-1                 0  
     225  hru225                     hru       225     3.2098E-1                 0  
     226  hru226                     hru       226     2.1294E-1                 0  
     227  hru227                     hru       227     5.8997E-1                 0  
     228  hru228                     hru       228     1.9708E-1                 0  
     229  hru229                     hru       229     4.0448E-1                 0  
     230  hru230                     hru       230     3.3165E-1                 0  
     231  hru231                     hru       231     2.6387E-1                 0  
     232  hru232                     hru       232     1.8347E-1                 0  
     233  hru233                     hru       233     2.9959E-1                 0  
     234  hru234                     hru       234     3.2661E-1                 0  
     235  hru235                     hru       235     1.9033E-1                 0  
     236  hru236                     hru       236     1.0000E+0                 0  
     237  hru237                     hru       237     1.0000E+0                 0  
     238  hru238                     hru       238     5.4321E-1                 0  
     239  hru239                     hru       239     2.0074E-1                 0  
     240  hru240                     hru       240     2.5605E-1                 0  
     241  hru241                     hru       241     1.8761E-1                 0  
     242  hru242                     hru       242     8.1239E-1                 0  
     243  hru243                     hru       243     1.0000E+0                 0  
     244  hru244                     hru       244     1.0000E+0                 0  
     245  hru245                     hru       245     1.0000E+0                 0  
     246  hru246                     hru       246     1.0000E+0                 0  
     247  hru247                     hru       247     6.3576E-1                 0  
     248  hru248                     hru       248     2.1358E-1                 0  
     249  hru249                     hru       249     1.5066E-1                 0  
     250  hru250                     hru       250     7.5439E-1                 0  
     251  hru251                     hru       251     2.4561E-1                 0  
     252  hru252                     hru       252     1.7831E-1                 0  
     253  hru253                     hru       253     6.8772E-1                 0  
     254  hru254                     hru       254     1.7040E-1                 0  
     255  hru255                     hru       255     1.0000E+0                 0  
     256  hru256                     hru       256     1.0000E+0                 0  
     257  hru257                     hru       257     1.8466E-1                 0  
     258  hru258                     hru       258     8.1534E-1                 0  
     259  hru259                     hru       259     8.2108E-1                 0  
     260  hru260                     hru       260     1.7892E-1                 0  
     261  hru261                     hru       261     3.5955E-1                 0  
     262  hru262                     hru       262     2.2325E-1                 0  
     263  hru263                     hru       263     4.1720E-1                 0  
     264  hru264                     hru       264     5.2915E-1                 0  
     265  hru265                     hru       265     2.5960E-1                 0  
     266  hru266                     hru       266     2.1126E-1                 0  
     267  hru267                     hru       267     1.8362E-1                 0  
     268  hru268                     hru       268     8.1638E-1                 0  
     269  hru269                     hru       269     1.0000E+0                 0  
     270  hru270                     hru       270     2.3326E-1                 0  
     271  hru271                     hru       271     7.6674E-1                 0  
