rout_unit.con: written by SWAT+ editor v3.0.4 on 2024-10-15 00:19 for SWAT+ rev.61.0.1
      id  name                gis_id          area           lat           lon          elev       rtu               wst       cst      ovfl      rule   out_tot       obj_typ    obj_id       hyd_typ          frac  
       1  rtu0010                 10     286.02000     -11.91749     -76.32483    4390.02045         1      s5037s79792w         0         0         0         2           sdc         1           tot       1.00000           aqu         1           rhg       1.00000  
       2  rtu0020                 20    1018.98000     -11.91161     -76.30798    4537.94126         2      s5037s79792w         0         0         0         2           sdc         2           tot       1.00000           aqu         1           rhg       1.00000  
       3  rtu0030                 30     692.19000     -11.89564     -76.29367    4587.90313         3      s5037s79792w         0         0         0         2           sdc         3           tot       1.00000           aqu         1           rhg       1.00000  
       4  rtu0040                 40    1309.95000     -11.86523     -76.28338    4761.51886         4      s5037s79792w         0         0         0         2           sdc         4           tot       1.00000           aqu         1           rhg       1.00000  
       5  rtu0050                 50     390.15000     -11.93274     -76.30869    4589.07428         5      s5037s79792w         0         0         0         2           sdc         5           tot       1.00000           aqu         1           rhg       1.00000  
       6  rtu0060                 60     877.77000     -11.90092     -76.33627    4562.58392         6      s5037s79792w         0         0         0         2           sdc         6           tot       1.00000           aqu         1           rhg       1.00000  
       7  rtu0070                 70     504.99000     -11.89302     -76.27434    4793.95028         7      s5037s79792w         0         0         0         2           sdc         7           tot       1.00000           aqu         1           rhg       1.00000  
       8  rtu0080                 80    1112.76000     -11.87467     -76.31016    4667.69007         8      s5037s79792w         0         0         0         2           sdc         8           tot       1.00000           aqu         1           rhg       1.00000  
       9  rtu0090                 90     499.86000     -11.97807     -76.40957    3724.81293         9      s5037s79792w         0         0         0         2           sdc         9           tot       1.00000           aqu         1           rhg       1.00000  
      10  rtu0100                100     962.64000     -11.95968     -76.38386    3827.85770        10      s5037s79792w         0         0         0         2           sdc        10           tot       1.00000           aqu         1           rhg       1.00000  
      11  rtu0110                110     793.62000     -11.94416     -76.35381    4061.50851        11      s5037s79792w         0         0         0         2           sdc        11           tot       1.00000           aqu         1           rhg       1.00000  
      12  rtu0120                120     622.08000     -11.92986     -76.33701    4269.99117        12      s5037s79792w         0         0         0         2           sdc        12           tot       1.00000           aqu         1           rhg       1.00000  
      13  rtu0130                130    1825.02000     -11.97826     -76.36398    3744.77463        13      s5037s79792w         0         0         0         2           sdc        13           tot       1.00000           aqu         2           rhg       1.00000  
      14  rtu0140                140     465.30000     -11.98515     -76.33755    4101.88588        14      s5037s79792w         0         0         0         2           sdc        14           tot       1.00000           aqu         2           rhg       1.00000  
      15  rtu0150                150     852.39000     -11.97120     -76.31295    4211.38433        15      s5037s79792w         0         0         0         2           sdc        15           tot       1.00000           aqu         2           rhg       1.00000  
      16  rtu0160                160     588.15000     -11.95148     -76.29885    4326.26044        16      s5037s79792w         0         0         0         2           sdc        16           tot       1.00000           aqu         2           rhg       1.00000  
      17  rtu0170                170      42.93000     -11.94650     -76.37545    3932.24319        17      s5037s79792w         0         0         0         2           sdc        17           tot       1.00000           aqu         1           rhg       1.00000  
      18  rtu0180                180     612.27000     -11.99381     -76.32689    4251.84904        18      s5037s79792w         0         0         0         2           sdc        18           tot       1.00000           aqu         2           rhg       1.00000  
      19  rtu0190                190     734.76000     -11.99911     -76.30325    4558.95664        19      s5037s79792w         0         0         0         2           sdc        19           tot       1.00000           aqu         2           rhg       1.00000  
      20  rtu0200                200     472.68000     -12.01104     -76.32128    4494.76466        20      s5037s79792w         0         0         0         2           sdc        20           tot       1.00000           aqu         2           rhg       1.00000  
      21  rtu0210                210    1909.80000     -11.91785     -76.26855    4661.31767        21      s5037s79792w         0         0         0         2           sdc        21           tot       1.00000           aqu         2           rhg       1.00000  
      22  rtu0220                220    2860.29000     -11.93852     -76.24827    4646.70401        22      s5037s79792w         0         0         0         2           sdc        22           tot       1.00000           aqu         2           rhg       1.00000  
      23  rtu0230                230    1060.56000     -11.92056     -76.36474    4368.41828        23      s5037s79792w         0         0         0         2           sdc        23           tot       1.00000           aqu         1           rhg       1.00000  
      24  rtu0240                240      69.84000     -11.97081     -76.40171    3564.79639        24      s5037s79792w         0         0         0         2           sdc        24           tot       1.00000           aqu         1           rhg       1.00000  
      25  rtu0250                250    1880.01000     -11.97843     -76.27614    4535.78745        25      s5037s79792w         0         0         0         2           sdc        25           tot       1.00000           aqu         2           rhg       1.00000  
      26  rtu0260                260     408.69000     -11.95872     -76.33119    4272.60780        26      s5037s79792w         0         0         0         2           sdc        26           tot       1.00000           aqu         2           rhg       1.00000  
      27  rtu0270                270     651.33000     -11.95820     -76.42053    4261.25273        27      s5037s79792w         0         0         0         2           sdc        27           tot       1.00000           aqu         1           rhg       1.00000  
      28  rtu0280                280     597.69000     -11.94875     -76.40418    4189.97154        28      s5037s79792w         0         0         0         2           sdc        28           tot       1.00000           aqu         1           rhg       1.00000  
      29  rtu0290                290     367.83000     -11.94547     -76.32581    4428.99339        29      s5037s79792w         0         0         0         2           sdc        29           tot       1.00000           aqu         1           rhg       1.00000  
      30  rtu0300                300     620.55000     -11.93171     -76.38714    4365.01117        30      s5037s79792w         0         0         0         2           sdc        30           tot       1.00000           aqu         1           rhg       1.00000  
      31  rtu0310                310       0.81000     -12.03243     -76.62415    1042.22222        31      s5037s79792w         0         0         0         2           sdc        31           tot       1.00000           aqu         8           rhg       1.00000  
      32  rtu0320                320    1098.90000     -12.03444     -76.60413    1464.89926        32      s5037s79792w         0         0         0         2           sdc        32           tot       1.00000           aqu         8           rhg       1.00000  
      33  rtu0330                330     895.14000     -12.04260     -76.58186    1721.63543        33      s5037s79792w         0         0         0         2           sdc        33           tot       1.00000           aqu         8           rhg       1.00000  
      34  rtu0340                340      53.46000     -12.04835     -76.56984    1381.14983        34      s5037s79792w         0         0         0         2           sdc        34           tot       1.00000           aqu         7           rhg       1.00000  
      35  rtu0350                350    1012.23000     -12.05102     -76.54884    1727.51667        35      s5037s79792w         0         0         0         2           sdc        35           tot       1.00000           aqu         7           rhg       1.00000  
      36  rtu0360                360    1019.97000     -12.03466     -76.41109    3189.75858        36      s5037s79792w         0         0         0         2           sdc        36           tot       1.00000           aqu         5           rhg       1.00000  
      37  rtu0370                370     994.50000     -12.01189     -76.40231    3422.99357        37      s5037s79792w         0         0         0         2           sdc        37           tot       1.00000           aqu         5           rhg       1.00000  
      38  rtu0380                380     658.53000     -11.99207     -76.40987    3539.30709        38      s5037s79792w         0         0         0         2           sdc        38           tot       1.00000           aqu         5           rhg       1.00000  
      39  rtu0390                390     727.29000     -12.03722     -76.49240    2583.42383        39      s5037s79792w         0         0         0         2           sdc        39           tot       1.00000           aqu         3           rhg       1.00000  
      40  rtu0400                400     543.33000     -12.03146     -76.56414    1756.97002        40      s5037s79792w         0         0         0         2           sdc        40           tot       1.00000           aqu         4           rhg       1.00000  
      41  rtu0410                410     234.90000     -12.02416     -76.48526    2722.25862        41      s5037s79792w         0         0         0         2           sdc        41           tot       1.00000           aqu         3           rhg       1.00000  
      42  rtu0420                420     197.01000     -12.01600     -76.47390    2967.70717        42      s5037s79792w         0         0         0         2           sdc        42           tot       1.00000           aqu         3           rhg       1.00000  
      43  rtu0430                430     431.73000     -12.01874     -76.54855    2044.66250        43      s5037s79792w         0         0         0         2           sdc        43           tot       1.00000           aqu         4           rhg       1.00000  
      44  rtu0440                440     978.66000     -12.06721     -76.61735    1897.17169        44      s5037s79792w         0         0         0         2           sdc        44           tot       1.00000           aqu         8           rhg       1.00000  
      45  rtu0450                450    1217.07000     -12.07195     -76.56991    2014.99985        45      s5037s79792w         0         0         0         2           sdc        45           tot       1.00000           aqu         7           rhg       1.00000  
      46  rtu0460                460    1051.20000     -12.06989     -76.59858    2148.95051        46      s5037s79792w         0         0         0         2           sdc        46           tot       1.00000           aqu         8           rhg       1.00000  
      47  rtu0470                470    1444.59000     -11.98286     -76.47010    3874.04224        47      s5037s79792w         0         0         0         2           sdc        47           tot       1.00000           aqu         3           rhg       1.00000  
      48  rtu0480                480    1176.21000     -11.98823     -76.45077    3924.48114        48      s5037s79792w         0         0         0         2           sdc        48           tot       1.00000           aqu         3           rhg       1.00000  
      49  rtu0490                490    1401.93000     -11.99089     -76.52391    2976.72479        49      s5037s79792w         0         0         0         2           sdc        49           tot       1.00000           aqu         4           rhg       1.00000  
      50  rtu0500                500     586.71000     -11.99974     -76.37200    3970.05262        50      s5037s79792w         0         0         0         2           sdc        50           tot       1.00000           aqu         5           rhg       1.00000  
      51  rtu0510                510     608.67000     -12.05248     -76.39906    3235.58317        51      s5037s79792w         0         0         0         2           sdc        51           tot       1.00000           aqu         5           rhg       1.00000  
      52  rtu0520                520     362.07000     -12.06573     -76.47233    2607.25926        52      s5037s79792w         0         0         0         2           sdc        52           tot       1.00000           aqu         3           rhg       1.00000  
      53  rtu0530                530      44.82000     -12.02281     -76.39464    3074.29518        53      s5037s79792w         0         0         0         2           sdc        53           tot       1.00000           aqu         5           rhg       1.00000  
      54  rtu0540                540     652.77000     -12.05495     -76.36889    3841.46863        54      s5037s79792w         0         0         0         2           sdc        54           tot       1.00000           aqu         5           rhg       1.00000  
      55  rtu0550                550     644.94000     -12.02772     -76.46233    3068.49149        55      s5037s79792w         0         0         0         2           sdc        55           tot       1.00000           aqu         3           rhg       1.00000  
      56  rtu0560                560     391.68000     -12.06003     -76.46270    2875.60110        56      s5037s79792w         0         0         0         2           sdc        56           tot       1.00000           aqu         3           rhg       1.00000  
      57  rtu0570                570     604.53000     -12.05174     -76.34069    4424.77937        57      s5037s79792w         0         0         0         2           sdc        57           tot       1.00000           aqu         5           rhg       1.00000  
      58  rtu0580                580     835.29000     -12.04637     -76.45934    2984.49068        58      s5037s79792w         0         0         0         2           sdc        58           tot       1.00000           aqu         3           rhg       1.00000  
      59  rtu0590                590     436.41000     -12.04262     -76.51158    2537.20705        59      s5037s79792w         0         0         0         2           sdc        59           tot       1.00000           aqu         7           rhg       1.00000  
      60  rtu0600                600     764.01000     -12.03268     -76.34065    4416.10296        60      s5037s79792w         0         0         0         2           sdc        60           tot       1.00000           aqu         5           rhg       1.00000  
      61  rtu0610                610     654.30000     -12.02850     -76.51614    2713.03411        61      s5037s79792w         0         0         0         2           sdc        61           tot       1.00000           aqu         7           rhg       1.00000  
      62  rtu0620                620     372.42000     -12.03115     -76.38062    3665.06428        62      s5037s79792w         0         0         0         2           sdc        62           tot       1.00000           aqu         5           rhg       1.00000  
      63  rtu0630                630     897.57000     -12.02894     -76.35984    4158.89251        63      s5037s79792w         0         0         0         2           sdc        63           tot       1.00000           aqu         5           rhg       1.00000  
      64  rtu0640                640     355.05000     -12.00501     -76.48900    3498.01648        64      s5037s79792w         0         0         0         2           sdc        64           tot       1.00000           aqu         3           rhg       1.00000  
      65  rtu0650                650     673.83000     -12.01381     -76.43240    3654.21531        65      s5037s79792w         0         0         0         2           sdc        65           tot       1.00000           aqu         3           rhg       1.00000  
      66  rtu0660                660     639.00000     -12.01554     -76.36781    4053.26775        66      s5037s79792w         0         0         0         2           sdc        66           tot       1.00000           aqu         5           rhg       1.00000  
      67  rtu0670                670     449.19000     -12.00721     -76.56133    2289.98317        67      s5037s79792w         0         0         0         2           sdc        67           tot       1.00000           aqu         4           rhg       1.00000  
      68  rtu0680                680     835.47000     -12.00178     -76.44061    3765.61467        68      s5037s79792w         0         0         0         2           sdc        68           tot       1.00000           aqu         3           rhg       1.00000  
      69  rtu0690                690    1057.86000     -12.00761     -76.51540    3072.07172        69      s5037s79792w         0         0         0         2           sdc        69           tot       1.00000           aqu         4           rhg       1.00000  
      70  rtu0700                700      29.70000     -12.06503     -76.53537    1492.13030        70      s5037s79792w         0         0         0         2           sdc        70           tot       1.00000           aqu         7           rhg       1.00000  
      71  rtu0710                710     466.74000     -12.06603     -76.52479    1899.46163        71      s5037s79792w         0         0         0         2           sdc        71           tot       1.00000           aqu         7           rhg       1.00000  
      72  rtu0720                720     201.42000     -12.06777     -76.51351    1918.04066        72      s5037s79792w         0         0         0         2           sdc        72           tot       1.00000           aqu         7           rhg       1.00000  
      73  rtu0730                730      90.81000     -12.08230     -76.51564    1605.25966        73      s5037s79792w         0         0         0         2           sdc        73           tot       1.00000           aqu        11           rhg       1.00000  
      74  rtu0740                740      66.42000     -12.08449     -76.50661    1613.42818        74      s5037s79792w         0         0         0         2           sdc        74           tot       1.00000           aqu        11           rhg       1.00000  
      75  rtu0750                750     509.31000     -12.08687     -76.49059    2001.33062        75      s5037s79792w         0         0         0         2           sdc        75           tot       1.00000           aqu        11           rhg       1.00000  
      76  rtu0760                760     660.87000     -12.09554     -76.47641    2120.09369        76      s5037s79792w         0         0         0         2           sdc        76           tot       1.00000           aqu        12           rhg       1.00000  
      77  rtu0770                770      70.56000     -12.10343     -76.46405    1909.32526        77      s5037s79792w         0         0         0         2           sdc        77           tot       1.00000           aqu        12           rhg       1.00000  
      78  rtu0780                780    1510.65000     -12.09138     -76.44527    2643.49943        78      s5037s79792w         0         0         0         2           sdc        78           tot       1.00000           aqu        10           rhg       1.00000  
      79  rtu0790                790     431.55000     -12.08102     -76.42919    2605.93264        79      s5037s79792w         0         0         0         2           sdc        79           tot       1.00000           aqu         5           rhg       1.00000  
      80  rtu0800                800     385.38000     -12.06802     -76.42061    2910.88533        80      s5037s79792w         0         0         0         2           sdc        80           tot       1.00000           aqu         5           rhg       1.00000  
      81  rtu0810                810     246.60000     -12.05592     -76.42100    2874.69526        81      s5037s79792w         0         0         0         2           sdc        81           tot       1.00000           aqu         5           rhg       1.00000  
      82  rtu0820                820    1087.47000     -12.12117     -76.44453    2529.77497        82      s5037s79792w         0         0         0         2           sdc        82           tot       1.00000           aqu         6           rhg       1.00000  
      83  rtu0830                830     999.00000     -12.06735     -76.49467    2109.18495        83      s5037s79792w         0         0         0         2           sdc        83           tot       1.00000           aqu         3           rhg       1.00000  
      84  rtu0840                840     560.88000     -12.09438     -76.41458    2794.07975        84      s5037s79792w         0         0         0         2           sdc        84           tot       1.00000           aqu         9           rhg       1.00000  
      85  rtu0850                850     620.10000     -12.09797     -76.30610    4241.24673        85      s5037s79792w         0         0         0         2           sdc        85           tot       1.00000           aqu         6           rhg       1.00000  
      86  rtu0860                860      52.83000     -12.09864     -76.49638    1786.77172        86      s5037s79792w         0         0         0         2           sdc        86           tot       1.00000           aqu        13           rhg       1.00000  
      87  rtu0870                870     348.21000     -12.11824     -76.49719    2263.44017        87      s5037s79792w         0         0         0         2           sdc        87           tot       1.00000           aqu        13           rhg       1.00000  
      88  rtu0880                880     870.48000     -12.07111     -76.31610    4411.35722        88      s5037s79792w         0         0         0         2           sdc        88           tot       1.00000           aqu         6           rhg       1.00000  
      89  rtu0890                890    1204.56000     -12.10877     -76.38729    3474.37470        89      s5037s79792w         0         0         0         2           sdc        89           tot       1.00000           aqu         9           rhg       1.00000  
      90  rtu0900                900    2422.35000     -12.15301     -76.46254    3057.34026        90      s5037s79792w         0         0         0         2           sdc        90           tot       1.00000           aqu        12           rhg       1.00000  
      91  rtu0910                910     477.63000     -12.13672     -76.50385    2785.01526        91      s5037s79792w         0         0         0         2           sdc        91           tot       1.00000           aqu        13           rhg       1.00000  
      92  rtu0920                920     655.20000     -12.11966     -76.36189    4029.21593        92      s5037s79792w         0         0         0         2           sdc        92           tot       1.00000           aqu         9           rhg       1.00000  
      93  rtu0930                930    1264.86000     -12.13622     -76.52411    2853.18614        93      s5037s79792w         0         0         0         2           sdc        93           tot       1.00000           aqu        13           rhg       1.00000  
      94  rtu0940                940    1119.60000     -12.13681     -76.36977    3753.26624        94      s5037s79792w         0         0         0         2           sdc        94           tot       1.00000           aqu         9           rhg       1.00000  
      95  rtu0950                950     908.37000     -12.12968     -76.48283    2701.37323        95      s5037s79792w         0         0         0         2           sdc        95           tot       1.00000           aqu        13           rhg       1.00000  
      96  rtu0960                960    1557.54000     -12.03328     -76.30897    4537.68283        96      s5037s79792w         0         0         0         2           sdc        96           tot       1.00000           aqu         6           rhg       1.00000  
      97  rtu0970                970     530.46000     -12.04239     -76.53173    2048.56854        97      s5037s79792w         0         0         0         2           sdc        97           tot       1.00000           aqu         7           rhg       1.00000  
      98  rtu0980                980     493.65000     -12.04957     -76.29961    4526.47438        98      s5037s79792w         0         0         0         2           sdc        98           tot       1.00000           aqu         6           rhg       1.00000  
      99  rtu0990                990     654.39000     -12.04873     -76.43566    3325.89850        99      s5037s79792w         0         0         0         2           sdc        99           tot       1.00000           aqu         5           rhg       1.00000  
     100  rtu1000               1000      13.95000     -12.08921     -76.40233    2933.66452       100      s5037s79792w         0         0         0         2           sdc       100           tot       1.00000           aqu         9           rhg       1.00000  
     101  rtu1010               1010     605.25000     -12.08728     -76.37900    3603.19509       101      s5037s79792w         0         0         0         2           sdc       101           tot       1.00000           aqu         9           rhg       1.00000  
     102  rtu1020               1020     515.52000     -12.09412     -76.56653    2507.60248       102      s5037s79792w         0         0         0         2           sdc       102           tot       1.00000           aqu         7           rhg       1.00000  
     103  rtu1030               1030      99.81000     -12.08414     -76.30127    4294.82507       103      s5037s79792w         0         0         0         2           sdc       103           tot       1.00000           aqu         6           rhg       1.00000  
     104  rtu1040               1040     616.05000     -12.11917     -76.58054    2752.99883       104      s5037s79792w         0         0         0         2           sdc       104           tot       1.00000           aqu         7           rhg       1.00000  
     105  rtu1050               1050     656.82000     -12.11551     -76.56372    2821.67813       105      s5037s79792w         0         0         0         2           sdc       105           tot       1.00000           aqu         7           rhg       1.00000  
     106  rtu1060               1060    1420.83000     -12.10471     -76.53824    2513.64806       106      s5037s79792w         0         0         0         2           sdc       106           tot       1.00000           aqu         7           rhg       1.00000  
     107  rtu1070               1070     479.25000     -12.09945     -76.32438    4432.04432       107      s5037s79792w         0         0         0         2           sdc       107           tot       1.00000           aqu         6           rhg       1.00000  
     108  rtu1080               1080     496.44000     -12.10719     -76.51390    2157.75526       108      s5037s79792w         0         0         0         2           sdc       108           tot       1.00000           aqu        11           rhg       1.00000  
     109  rtu1090               1090    1145.16000     -12.09343     -76.34841    4280.49631       109      s5037s79792w         0         0         0         2           sdc       109           tot       1.00000           aqu         9           rhg       1.00000  
     110  rtu1100               1100     390.06000     -12.09758     -76.58854    2592.27111       110      s5037s79792w         0         0         0         2           sdc       110           tot       1.00000           aqu         7           rhg       1.00000  
     111  rtu1110               1110     356.13000     -12.09886     -76.52070    2050.24286       111      s5037s79792w         0         0         0         2           sdc       111           tot       1.00000           aqu        11           rhg       1.00000  