rout_unit.def: written by SWAT+ editor v3.0.4 on 2024-10-15 00:19 for SWAT+ rev.61.0.1
      id              name  elem_tot  elements  
       1           rtu0010         2        26       -27  
       2           rtu0020         2        24       -25  
       3           rtu0030         2        22       -23  
       4           rtu0040         1         1  
       5           rtu0050         2        19       -21  
       6           rtu0060         2        10       -12  
       7           rtu0070         1         7  
       8           rtu0080         2         2        -3  
       9           rtu0090         1        35  
      10           rtu0100         2        33       -34  
      11           rtu0110         2        31       -32  
      12           rtu0120         1        28  
      13           rtu0130         2        52       -54  
      14           rtu0140         1        51  
      15           rtu0150         1        50  
      16           rtu0160         1        49  
      17           rtu0170         1        30  
      18           rtu0180         2        47       -48  
      19           rtu0190         2        36       -39  
      20           rtu0200         2        40       -41  
      21           rtu0210         1        42  
      22           rtu0220         1        44  
      23           rtu0230         2        17       -18  
      24           rtu0240         1        29  
      25           rtu0250         2        45       -46  
      26           rtu0260         1        43  
      27           rtu0270         2        15       -16  
      28           rtu0280         2        13       -14  
      29           rtu0290         2         8        -9  
      30           rtu0300         2         4        -6  
      31           rtu0310         2       219      -220  
      32           rtu0320         1       218  
      33           rtu0330         1       217  
      34           rtu0340         1       206  
      35           rtu0350         2       210      -211  
      36           rtu0360         1       110  
      37           rtu0370         1       109  
      38           rtu0380         2        99      -100  
      39           rtu0390         1        73  
      40           rtu0400         1        81  
      41           rtu0410         1        72  
      42           rtu0420         1        71  
      43           rtu0430         2        79       -80  
      44           rtu0440         2       212      -214  
      45           rtu0450         2       204      -205  
      46           rtu0460         2       215      -216  
      47           rtu0470         2        58       -59  
      48           rtu0480         2        63       -64  
      49           rtu0490         1        78  
      50           rtu0500         2        89       -90  
      51           rtu0510         1       104  
      52           rtu0520         1        70  
      53           rtu0530         1       103  
      54           rtu0540         2       101      -102  
      55           rtu0550         1        69  
      56           rtu0560         1        68  
      57           rtu0570         2        95       -96  
      58           rtu0580         1        67  
      59           rtu0590         1       196  
      60           rtu0600         2        93       -94  
      61           rtu0610         2       194      -195  
      62           rtu0620         2        91       -92  
      63           rtu0630         2        87       -88  
      64           rtu0640         2        65       -66  
      65           rtu0650         2        60       -62  
      66           rtu0660         2        82       -83  
      67           rtu0670         1        77  
      68           rtu0680         2        55       -57  
      69           rtu0690         2        75       -76  
      70           rtu0700         1       209  
      71           rtu0710         1       208  
      72           rtu0720         1       207  
      73           rtu0730         2       250      -251  
      74           rtu0740         2       247      -249  
      75           rtu0750         1       246  
      76           rtu0760         1       256  
      77           rtu0770         1       255  
      78           rtu0780         1       243  
      79           rtu0790         2       107      -108  
      80           rtu0800         2       105      -106  
      81           rtu0810         2       111      -112  
      82           rtu0820         1       182  
      83           rtu0830         1        74  
      84           rtu0840         2       241      -242  
      85           rtu0850         2       186      -188  
      86           rtu0860         2       270      -271  
      87           rtu0870         1       269  
      88           rtu0880         2       183      -185  
      89           rtu0890         2       238      -240  
      90           rtu0900         2       252      -254  
      91           rtu0910         2       267      -268  
      92           rtu0920         2       221      -222  
      93           rtu0930         2       259      -260  
      94           rtu0940         2       229      -231  
      95           rtu0950         2       257      -258  
      96           rtu0960         2       129      -131  
      97           rtu0970         1       203  
      98           rtu0980         2       158      -160  
      99           rtu0990         2        97       -98  
     100           rtu1000         1       237  
     101           rtu1010         1       236  
     102           rtu1020         2       201      -202  
     103           rtu1030         2       165      -168  
     104           rtu1040         1       200  
     105           rtu1050         2       198      -199  
     106           rtu1060         1       197  
     107           rtu1070         2       141      -145  
     108           rtu1080         1       245  
     109           rtu1090         2       232      -235  
     110           rtu1100         1       193  
     111           rtu1110         1       244  
     112           rtu1120         2       122      -124  
     113           rtu1130         2        84       -86  
     114           rtu1140         2       226      -228  
     115           rtu1150         2       223      -225  
     116           rtu1160         2       113      -115  
     117           rtu1170         1       192  
     118           rtu1180         2       179      -181  
     119           rtu1190         2       176      -178  
     120           rtu1200         2       173      -175  
     121           rtu1210         2       170      -172  
     122           rtu1220         1       169  
     123           rtu1230         1       164  
     124           rtu1240         2       189      -191  
     125           rtu1250         2       161      -163  
     126           rtu1260         2       155      -157  
     127           rtu1270         2       151      -154  
     128           rtu1280         2       146      -150  
     129           rtu1290         2       137      -140  
     130           rtu1300         2       132      -136  
     131           rtu1310         2       264      -266  
     132           rtu1320         2       125      -128  
     133           rtu1330         2       261      -263  
     134           rtu1340         2       119      -121  
     135           rtu1350         2       116      -118  
