soils.sol: written by SWAT+ editor v3.0.4 on 2024-10-15 00:19 for SWAT+ rev.61.0.1
name                            nly           hyd_grp        dp_tot    anion_excl      perc_crk  texture                              dp            bd           awc        soil_k        carbon          clay          silt          sand          rock           alb        usle_k            ec         caco3            ph  
I-Bh-Tv-c-5518                    2                 C     670.00000       0.50000       0.50000  LOAM                       
                                                                                                                               300.00000       1.00000       0.12000      45.93000       2.80000      19.00000      43.00000      39.00000       0.00000       0.00220       0.26000       0.00000       0.00000       0.00000  
                                                                                                                              1000.00000       1.10000       0.12000      24.75000       1.20000      21.00000      31.00000      47.00000       0.00000       0.04000       0.26000       0.00000       0.00000       0.00000  
I-Kl-c-5533                       2                 C     550.00000       0.50000       0.50000  LOAM                       
                                                                                                                               300.00000       1.30000       0.09000       9.02000       1.40000      21.00000      42.00000      38.00000       0.00000       0.03000       0.27000       0.00000       0.00000       0.00000  
                                                                                                                              1000.00000       1.40000       0.09000       4.95000       0.70000      26.00000      33.00000      42.00000       0.00000       0.12000       0.27000       0.00000       0.00000       0.00000  
I-Hl-Kl-b-5527                    2                 D     690.00000       0.50000       0.50000  LOAM                       
                                                                                                                               300.00000       1.30000       0.12000       8.23000       1.30000      23.00000      40.00000      38.00000       0.00000       0.03000       0.27000       0.00000       0.00000       0.00000  
                                                                                                                              1000.00000       1.40000       0.12000       4.23000       0.60000      29.00000      33.00000      37.00000       0.00000       0.15000       0.27000       0.00000       0.00000       0.00000  
I-c-5548                          2                 C     100.00000       0.50000       0.50000  LOAM                       
                                                                                                                               300.00000       1.20000       0.02000      13.28000       1.00000      23.00000      37.00000      40.00000       0.00000       0.07000       0.25000       0.00000       0.00000       0.00000  
                                                                                                                              1000.00000       1.50000       0.02000       2.45000       0.40000      33.00000      33.00000      33.00000       0.00000       0.22000       0.25000       0.00000       0.00000       0.00000  
I-Re-c-5540                       2                 C     550.00000       0.50000       0.50000  LOAM                       
                                                                                                                               300.00000       1.10000       0.09000      22.39000       0.90000      22.00000      33.00000      44.00000       0.00000       0.08000       0.27000       0.00000       0.00000       0.00000  
                                                                                                                              1000.00000       1.20000       0.09000      13.04000       0.70000      27.00000      29.00000      43.00000       0.00000       0.12000       0.27000       0.00000       0.00000       0.00000  
