tmp.cli: Temperature file names - file written by SWAT+ editor 2024-10-15 00:18:57.164807
filename
chalacotmp.tmp
