topography.hyd: written by SWAT+ editor v3.0.4 on 2024-10-15 00:19 for SWAT+ rev.61.0.1
name                       slp       slp_len       lat_len      dist_cha         depos  
topohru001             0.59535      10.00000      10.00000     121.00000       0.00000  
topohru002             0.52778      10.00000      10.00000     121.00000       0.00000  
topohru003             0.48800      10.00000      10.00000     121.00000       0.00000  
topohru004             0.14258      10.00000      10.00000     121.00000       0.00000  
topohru005             0.22690      10.00000      10.00000     121.00000       0.00000  
topohru006             0.47666      10.00000      10.00000     121.00000       0.00000  
topohru007             0.49468      10.00000      10.00000     121.00000       0.00000  
topohru008             0.45242      10.00000      10.00000     121.00000       0.00000  
topohru009             0.22962      10.00000      10.00000     121.00000       0.00000  
topohru010             0.41274      10.00000      10.00000     121.00000       0.00000  
topohru011             0.22875      10.00000      10.00000     121.00000       0.00000  
topohru012             0.14274      10.00000      10.00000     121.00000       0.00000  
topohru013             0.23362      10.00000      10.00000     121.00000       0.00000  
topohru014             0.44717      10.00000      10.00000     121.00000       0.00000  
topohru015             0.23067      10.00000      10.00000     121.00000       0.00000  
topohru016             0.49100      10.00000      10.00000     121.00000       0.00000  
topohru017             0.23350      10.00000      10.00000     121.00000       0.00000  
topohru018             0.43646      10.00000      10.00000     121.00000       0.00000  
topohru019             0.22984      10.00000      10.00000     121.00000       0.00000  
topohru020             0.43032      10.00000      10.00000     121.00000       0.00000  
topohru021             0.14173      10.00000      10.00000     121.00000       0.00000  
topohru022             0.23068      10.00000      10.00000     121.00000       0.00000  
topohru023             0.50503      10.00000      10.00000     121.00000       0.00000  
topohru024             0.23058      10.00000      10.00000     121.00000       0.00000  
topohru025             0.45833      10.00000      10.00000     121.00000       0.00000  
topohru026             0.47347      10.00000      10.00000     121.00000       0.00000  
topohru027             0.23458      10.00000      10.00000     121.00000       0.00000  
topohru028             0.54852      10.00000      10.00000     121.00000       0.00000  
topohru029             0.71706      10.00000      10.00000     121.00000       0.00000  
topohru030             0.52615      10.00000      10.00000     121.00000       0.00000  
topohru031             0.52797      10.00000      10.00000     121.00000       0.00000  
topohru032             0.58508      10.00000      10.00000     121.00000       0.00000  
topohru033             0.57763      10.00000      10.00000     121.00000       0.00000  
topohru034             0.64650      10.00000      10.00000     121.00000       0.00000  
topohru035             0.60754      10.00000      10.00000     121.00000       0.00000  
topohru036             0.39916      10.00000      10.00000     121.00000       0.00000  
topohru037             0.43179      10.00000      10.00000     121.00000       0.00000  
topohru038             0.47203      10.00000      10.00000     121.00000       0.00000  
topohru039             0.48528      10.00000      10.00000     121.00000       0.00000  
topohru040             0.44062      10.00000      10.00000     121.00000       0.00000  
topohru041             0.23050      10.00000      10.00000     121.00000       0.00000  
topohru042             0.56706      10.00000      10.00000     121.00000       0.00000  
topohru043             0.50503      10.00000      10.00000     121.00000       0.00000  
topohru044             0.51729      10.00000      10.00000     121.00000       0.00000  
topohru045             0.50921      10.00000      10.00000     121.00000       0.00000  
topohru046             0.44492      10.00000      10.00000     121.00000       0.00000  
topohru047             0.52256      10.00000      10.00000     121.00000       0.00000  
topohru048             0.47190      10.00000      10.00000     121.00000       0.00000  
topohru049             0.53594      10.00000      10.00000     121.00000       0.00000  
topohru050             0.58657      10.00000      10.00000     121.00000       0.00000  
topohru051             0.57738      10.00000      10.00000     121.00000       0.00000  
topohru052             0.59573      10.00000      10.00000     121.00000       0.00000  
topohru053             0.62961      10.00000      10.00000     121.00000       0.00000  
topohru054             0.58743      10.00000      10.00000     121.00000       0.00000  
topohru055             0.23162      10.00000      10.00000     121.00000       0.00000  
topohru056             0.14516      10.00000      10.00000     121.00000       0.00000  
topohru057             0.40610      10.00000      10.00000     121.00000       0.00000  
topohru058             0.23103      10.00000      10.00000     121.00000       0.00000  
topohru059             0.46307      10.00000      10.00000     121.00000       0.00000  
topohru060             0.39074      10.00000      10.00000     121.00000       0.00000  
topohru061             0.13968      10.00000      10.00000     121.00000       0.00000  
topohru062             0.22713      10.00000      10.00000     121.00000       0.00000  
topohru063             0.23464      10.00000      10.00000     121.00000       0.00000  
topohru064             0.43344      10.00000      10.00000     121.00000       0.00000  
topohru065             0.23153      10.00000      10.00000     121.00000       0.00000  
topohru066             0.54037      10.00000      10.00000     121.00000       0.00000  
topohru067             0.54895      10.00000      10.00000     121.00000       0.00000  
topohru068             0.56549      10.00000      10.00000     121.00000       0.00000  
topohru069             0.58309      10.00000      10.00000     121.00000       0.00000  
topohru070             0.60521      10.00000      10.00000     121.00000       0.00000  
topohru071             0.68400      10.00000      10.00000     121.00000       0.00000  
topohru072             0.68178      10.00000      10.00000     121.00000       0.00000  
topohru073             0.62335      10.00000      10.00000     121.00000       0.00000  
topohru074             0.61471      10.00000      10.00000     121.00000       0.00000  
topohru075             0.23239      10.00000      10.00000     121.00000       0.00000  
topohru076             0.52907      10.00000      10.00000     121.00000       0.00000  
topohru077             0.60674      10.00000      10.00000     121.00000       0.00000  
topohru078             0.53621      10.00000      10.00000     121.00000       0.00000  
topohru079             0.66074      10.00000      10.00000     121.00000       0.00000  
topohru080             0.77408      10.00000      10.00000     121.00000       0.00000  
topohru081             0.63585      10.00000      10.00000     121.00000       0.00000  
topohru082             0.55986      10.00000      10.00000     121.00000       0.00000  
topohru083             0.51636      10.00000      10.00000     121.00000       0.00000  
topohru084             0.23204      10.00000      10.00000     121.00000       0.00000  
topohru085             0.53621      10.00000      10.00000     121.00000       0.00000  
topohru086             0.44966      10.00000      10.00000     121.00000       0.00000  
topohru087             0.42366      10.00000      10.00000     121.00000       0.00000  
topohru088             0.61743      10.00000      10.00000     121.00000       0.00000  
topohru089             0.55765      10.00000      10.00000     121.00000       0.00000  
topohru090             0.48207      10.00000      10.00000     121.00000       0.00000  
topohru091             0.50882      10.00000      10.00000     121.00000       0.00000  
topohru092             0.23187      10.00000      10.00000     121.00000       0.00000  
topohru093             0.23209      10.00000      10.00000     121.00000       0.00000  
topohru094             0.47967      10.00000      10.00000     121.00000       0.00000  
topohru095             0.42610      10.00000      10.00000     121.00000       0.00000  
topohru096             0.23126      10.00000      10.00000     121.00000       0.00000  
topohru097             0.22989      10.00000      10.00000     121.00000       0.00000  
topohru098             0.52815      10.00000      10.00000     121.00000       0.00000  
topohru099             0.55840      10.00000      10.00000     121.00000       0.00000  
topohru100             0.59633      10.00000      10.00000     121.00000       0.00000  
topohru101             0.59488      10.00000      10.00000     121.00000       0.00000  
topohru102             0.58925      10.00000      10.00000     121.00000       0.00000  
topohru103             0.69155      10.00000      10.00000     121.00000       0.00000  
topohru104             0.79573      10.00000      10.00000     121.00000       0.00000  
topohru105             0.77902      10.00000      10.00000     121.00000       0.00000  
topohru106             0.73469      10.00000      10.00000     121.00000       0.00000  
topohru107             0.75688      10.00000      10.00000     121.00000       0.00000  
topohru108             0.75170      10.00000      10.00000     121.00000       0.00000  
topohru109             0.53484      10.00000      10.00000     121.00000       0.00000  
topohru110             0.70670      10.00000      10.00000     121.00000       0.00000  
topohru111             0.81001      10.00000      10.00000     121.00000       0.00000  
topohru112             0.78636      10.00000      10.00000     121.00000       0.00000  
topohru113             0.14234      10.00000      10.00000     121.00000       0.00000  
topohru114             0.23060      10.00000      10.00000     121.00000       0.00000  
topohru115             0.38696      10.00000      10.00000     121.00000       0.00000  
topohru116             0.46455      10.00000      10.00000     121.00000       0.00000  
topohru117             0.22702      10.00000      10.00000     121.00000       0.00000  
topohru118             0.44067      10.00000      10.00000     121.00000       0.00000  
topohru119             0.14139      10.00000      10.00000     121.00000       0.00000  
topohru120             0.22725      10.00000      10.00000     121.00000       0.00000  
topohru121             0.50094      10.00000      10.00000     121.00000       0.00000  
topohru122             0.37054      10.00000      10.00000     121.00000       0.00000  
topohru123             0.22359      10.00000      10.00000     121.00000       0.00000  
topohru124             0.14062      10.00000      10.00000     121.00000       0.00000  
topohru125             0.07610      30.00000      30.00000     121.00000       0.00000  
topohru126             0.13463      10.00000      10.00000     121.00000       0.00000  
topohru127             0.22651      10.00000      10.00000     121.00000       0.00000  
topohru128             0.43271      10.00000      10.00000     121.00000       0.00000  
topohru129             0.22880      10.00000      10.00000     121.00000       0.00000  
topohru130             0.40137      10.00000      10.00000     121.00000       0.00000  
topohru131             0.14263      10.00000      10.00000     121.00000       0.00000  
topohru132             0.45506      10.00000      10.00000     121.00000       0.00000  
topohru133             0.13444      10.00000      10.00000     121.00000       0.00000  
topohru134             0.13413      10.00000      10.00000     121.00000       0.00000  
topohru135             0.07620      30.00000      30.00000     121.00000       0.00000  
topohru136             0.13074      10.00000      10.00000     121.00000       0.00000  
topohru137             0.13623      10.00000      10.00000     121.00000       0.00000  
topohru138             0.36399      10.00000      10.00000     121.00000       0.00000  
topohru139             0.22999      10.00000      10.00000     121.00000       0.00000  
topohru140             0.39798      10.00000      10.00000     121.00000       0.00000  
topohru141             0.13895      10.00000      10.00000     121.00000       0.00000  
topohru142             0.22724      10.00000      10.00000     121.00000       0.00000  
topohru143             0.14080      10.00000      10.00000     121.00000       0.00000  
topohru144             0.22436      10.00000      10.00000     121.00000       0.00000  
topohru145             0.39725      10.00000      10.00000     121.00000       0.00000  
topohru146             0.07445      30.00000      30.00000     121.00000       0.00000  
topohru147             0.12541      10.00000      10.00000     121.00000       0.00000  
topohru148             0.40717      10.00000      10.00000     121.00000       0.00000  
topohru149             0.22803      10.00000      10.00000     121.00000       0.00000  
topohru150             0.13698      10.00000      10.00000     121.00000       0.00000  
topohru151             0.14152      10.00000      10.00000     121.00000       0.00000  
topohru152             0.22623      10.00000      10.00000     121.00000       0.00000  
topohru153             0.39921      10.00000      10.00000     121.00000       0.00000  
topohru154             0.13677      10.00000      10.00000     121.00000       0.00000  
topohru155             0.13832      10.00000      10.00000     121.00000       0.00000  
topohru156             0.22198      10.00000      10.00000     121.00000       0.00000  
topohru157             0.48996      10.00000      10.00000     121.00000       0.00000  
topohru158             0.23071      10.00000      10.00000     121.00000       0.00000  
topohru159             0.14052      10.00000      10.00000     121.00000       0.00000  
topohru160             0.37279      10.00000      10.00000     121.00000       0.00000  
topohru161             0.54088      10.00000      10.00000     121.00000       0.00000  
topohru162             0.22968      10.00000      10.00000     121.00000       0.00000  
topohru163             0.42085      10.00000      10.00000     121.00000       0.00000  
topohru164             0.47158      10.00000      10.00000     121.00000       0.00000  
topohru165             0.14658      10.00000      10.00000     121.00000       0.00000  
topohru166             0.37968      10.00000      10.00000     121.00000       0.00000  
topohru167             0.22738      10.00000      10.00000     121.00000       0.00000  
topohru168             0.22771      10.00000      10.00000     121.00000       0.00000  
topohru169             0.52991      10.00000      10.00000     121.00000       0.00000  
topohru170             0.43154      10.00000      10.00000     121.00000       0.00000  
topohru171             0.23144      10.00000      10.00000     121.00000       0.00000  
topohru172             0.61577      10.00000      10.00000     121.00000       0.00000  
topohru173             0.13852      10.00000      10.00000     121.00000       0.00000  
topohru174             0.22963      10.00000      10.00000     121.00000       0.00000  
topohru175             0.55443      10.00000      10.00000     121.00000       0.00000  
topohru176             0.48624      10.00000      10.00000     121.00000       0.00000  
topohru177             0.59527      10.00000      10.00000     121.00000       0.00000  
topohru178             0.57739      10.00000      10.00000     121.00000       0.00000  
topohru179             0.55200      10.00000      10.00000     121.00000       0.00000  
topohru180             0.70582      10.00000      10.00000     121.00000       0.00000  
topohru181             0.52633      10.00000      10.00000     121.00000       0.00000  
topohru182             0.65423      10.00000      10.00000     121.00000       0.00000  
topohru183             0.14525      10.00000      10.00000     121.00000       0.00000  
topohru184             0.42997      10.00000      10.00000     121.00000       0.00000  
topohru185             0.22932      10.00000      10.00000     121.00000       0.00000  
topohru186             0.40372      10.00000      10.00000     121.00000       0.00000  
topohru187             0.42475      10.00000      10.00000     121.00000       0.00000  
topohru188             0.23001      10.00000      10.00000     121.00000       0.00000  
topohru189             0.23019      10.00000      10.00000     121.00000       0.00000  
topohru190             0.42176      10.00000      10.00000     121.00000       0.00000  
topohru191             0.43381      10.00000      10.00000     121.00000       0.00000  
topohru192             0.71574      10.00000      10.00000     121.00000       0.00000  
topohru193             0.60755      10.00000      10.00000     121.00000       0.00000  
topohru194             0.22924      10.00000      10.00000     121.00000       0.00000  
topohru195             0.64071      10.00000      10.00000     121.00000       0.00000  
topohru196             0.59214      10.00000      10.00000     121.00000       0.00000  
topohru197             0.59296      10.00000      10.00000     121.00000       0.00000  
topohru198             0.48637      10.00000      10.00000     121.00000       0.00000  
topohru199             0.55422      10.00000      10.00000     121.00000       0.00000  
topohru200             0.54008      10.00000      10.00000     121.00000       0.00000  
topohru201             0.60780      10.00000      10.00000     121.00000       0.00000  
topohru202             0.64625      10.00000      10.00000     121.00000       0.00000  
topohru203             0.64228      10.00000      10.00000     121.00000       0.00000  
topohru204             0.70527      10.00000      10.00000     121.00000       0.00000  
topohru205             0.73354      10.00000      10.00000     121.00000       0.00000  
topohru206             0.67360      10.00000      10.00000     121.00000       0.00000  
topohru207             0.71982      10.00000      10.00000     121.00000       0.00000  
topohru208             0.69711      10.00000      10.00000     121.00000       0.00000  
topohru209             0.54912      10.00000      10.00000     121.00000       0.00000  
topohru210             0.67783      10.00000      10.00000     121.00000       0.00000  
topohru211             0.73975      10.00000      10.00000     121.00000       0.00000  
topohru212             0.50363      10.00000      10.00000     121.00000       0.00000  
topohru213             0.62538      10.00000      10.00000     121.00000       0.00000  
topohru214             0.64430      10.00000      10.00000     121.00000       0.00000  
topohru215             0.63644      10.00000      10.00000     121.00000       0.00000  
topohru216             0.56297      10.00000      10.00000     121.00000       0.00000  
topohru217             0.68601      10.00000      10.00000     121.00000       0.00000  
topohru218             0.63603      10.00000      10.00000     121.00000       0.00000  
topohru219             0.16319      10.00000      10.00000     121.00000       0.00000  
topohru220             0.22778      10.00000      10.00000     121.00000       0.00000  
topohru221             0.23179      10.00000      10.00000     121.00000       0.00000  
topohru222             0.39656      10.00000      10.00000     121.00000       0.00000  
topohru223             0.23053      10.00000      10.00000     121.00000       0.00000  
topohru224             0.40378      10.00000      10.00000     121.00000       0.00000  
topohru225             0.56010      10.00000      10.00000     121.00000       0.00000  
topohru226             0.22967      10.00000      10.00000     121.00000       0.00000  
topohru227             0.45605      10.00000      10.00000     121.00000       0.00000  
topohru228             0.14166      10.00000      10.00000     121.00000       0.00000  
topohru229             0.22904      10.00000      10.00000     121.00000       0.00000  
topohru230             0.34666      10.00000      10.00000     121.00000       0.00000  
topohru231             0.14542      10.00000      10.00000     121.00000       0.00000  
topohru232             0.13982      10.00000      10.00000     121.00000       0.00000  
topohru233             0.44606      10.00000      10.00000     121.00000       0.00000  
topohru234             0.39015      10.00000      10.00000     121.00000       0.00000  
topohru235             0.23052      10.00000      10.00000     121.00000       0.00000  
topohru236             0.49158      10.00000      10.00000     121.00000       0.00000  
topohru237             0.73627      10.00000      10.00000     121.00000       0.00000  
topohru238             0.43729      10.00000      10.00000     121.00000       0.00000  
topohru239             0.23113      10.00000      10.00000     121.00000       0.00000  
topohru240             0.45851      10.00000      10.00000     121.00000       0.00000  
topohru241             0.76081      10.00000      10.00000     121.00000       0.00000  
topohru242             0.68443      10.00000      10.00000     121.00000       0.00000  
topohru243             0.67871      10.00000      10.00000     121.00000       0.00000  
topohru244             0.52417      10.00000      10.00000     121.00000       0.00000  
topohru245             0.57432      10.00000      10.00000     121.00000       0.00000  
topohru246             0.60787      10.00000      10.00000     121.00000       0.00000  
topohru247             0.52549      10.00000      10.00000     121.00000       0.00000  
topohru248             0.13238      10.00000      10.00000     121.00000       0.00000  
topohru249             0.03051      60.00000      60.00000     121.00000       0.00000  
topohru250             0.63759      10.00000      10.00000     121.00000       0.00000  
topohru251             0.12727      10.00000      10.00000     121.00000       0.00000  
topohru252             0.14055      10.00000      10.00000     121.00000       0.00000  
topohru253             0.57434      10.00000      10.00000     121.00000       0.00000  
topohru254             0.22898      10.00000      10.00000     121.00000       0.00000  
topohru255             0.63554      10.00000      10.00000     121.00000       0.00000  
topohru256             0.67104      10.00000      10.00000     121.00000       0.00000  
topohru257             0.23050      10.00000      10.00000     121.00000       0.00000  
topohru258             0.56304      10.00000      10.00000     121.00000       0.00000  
topohru259             0.53210      10.00000      10.00000     121.00000       0.00000  
topohru260             0.23160      10.00000      10.00000     121.00000       0.00000  
topohru261             0.13841      10.00000      10.00000     121.00000       0.00000  
topohru262             0.22644      10.00000      10.00000     121.00000       0.00000  
topohru263             0.42957      10.00000      10.00000     121.00000       0.00000  
topohru264             0.48499      10.00000      10.00000     121.00000       0.00000  
topohru265             0.13934      10.00000      10.00000     121.00000       0.00000  
topohru266             0.22767      10.00000      10.00000     121.00000       0.00000  
topohru267             0.23094      10.00000      10.00000     121.00000       0.00000  
topohru268             0.58439      10.00000      10.00000     121.00000       0.00000  
topohru269             0.60718      10.00000      10.00000     121.00000       0.00000  
topohru270             0.13486      10.00000      10.00000     121.00000       0.00000  
topohru271             0.60895      10.00000      10.00000     121.00000       0.00000  
toportu0010            0.39358     121.00000     121.00000     121.00000       0.00000  
toportu0020            0.37092     121.00000     121.00000     121.00000       0.00000  
toportu0030            0.39620     121.00000     121.00000     121.00000       0.00000  
toportu0040            0.48424     121.00000     121.00000     121.00000       0.00000  
toportu0050            0.28728     121.00000     121.00000     121.00000       0.00000  
toportu0060            0.27206     121.00000     121.00000     121.00000       0.00000  
toportu0070            0.44311     121.00000     121.00000     121.00000       0.00000  
toportu0080            0.38241     121.00000     121.00000     121.00000       0.00000  
toportu0090            0.56652     121.00000     121.00000     121.00000       0.00000  
toportu0100            0.55875     121.00000     121.00000     121.00000       0.00000  
toportu0110            0.49464     121.00000     121.00000     121.00000       0.00000  
toportu0120            0.47692     121.00000     121.00000     121.00000       0.00000  
toportu0130            0.57095     121.00000     121.00000     121.00000       0.00000  
toportu0140            0.50935     121.00000     121.00000     121.00000       0.00000  
toportu0150            0.53190     121.00000     121.00000     121.00000       0.00000  
toportu0160            0.47336     121.00000     121.00000     121.00000       0.00000  
toportu0170            0.45464     121.00000     121.00000     121.00000       0.00000  
toportu0180            0.43095     121.00000     121.00000     121.00000       0.00000  
toportu0190            0.34418     121.00000     121.00000     121.00000       0.00000  
toportu0200            0.35121     121.00000     121.00000     121.00000       0.00000  
toportu0210            0.50230     121.00000     121.00000     121.00000       0.00000  
toportu0220            0.42765     121.00000     121.00000     121.00000       0.00000  
toportu0230            0.35273     121.00000     121.00000     121.00000       0.00000  
toportu0240            0.67694     121.00000     121.00000     121.00000       0.00000  
toportu0250            0.37767     121.00000     121.00000     121.00000       0.00000  
toportu0260            0.46608     121.00000     121.00000     121.00000       0.00000  
toportu0270            0.38630     121.00000     121.00000     121.00000       0.00000  
toportu0280            0.38942     121.00000     121.00000     121.00000       0.00000  
toportu0290            0.36133     121.00000     121.00000     121.00000       0.00000  
toportu0300            0.29494     121.00000     121.00000     121.00000       0.00000  
toportu0310            0.17900     121.00000     121.00000     121.00000       0.00000  
toportu0320            0.55274     121.00000     121.00000     121.00000       0.00000  
toportu0330            0.63904     121.00000     121.00000     121.00000       0.00000  
toportu0340            0.51891     121.00000     121.00000     121.00000       0.00000  
toportu0350            0.64901     121.00000     121.00000     121.00000       0.00000  
toportu0360            0.61331     121.00000     121.00000     121.00000       0.00000  
toportu0370            0.45657     121.00000     121.00000     121.00000       0.00000  
toportu0380            0.47413     121.00000     121.00000     121.00000       0.00000  
toportu0390            0.56929     121.00000     121.00000     121.00000       0.00000  
toportu0400            0.60076     121.00000     121.00000     121.00000       0.00000  
toportu0410            0.64957     121.00000     121.00000     121.00000       0.00000  
toportu0420            0.65638     121.00000     121.00000     121.00000       0.00000  
toportu0430            0.64574     121.00000     121.00000     121.00000       0.00000  
toportu0440            0.56626     121.00000     121.00000     121.00000       0.00000  
toportu0450            0.68020     121.00000     121.00000     121.00000       0.00000  
toportu0460            0.58450     121.00000     121.00000     121.00000       0.00000  
toportu0470            0.38645     121.00000     121.00000     121.00000       0.00000  
toportu0480            0.36471     121.00000     121.00000     121.00000       0.00000  
toportu0490            0.47111     121.00000     121.00000     121.00000       0.00000  
toportu0500            0.43650     121.00000     121.00000     121.00000       0.00000  
toportu0510            0.71820     121.00000     121.00000     121.00000       0.00000  
toportu0520            0.55514     121.00000     121.00000     121.00000       0.00000  
toportu0530            0.63591     121.00000     121.00000     121.00000       0.00000  
toportu0540            0.55006     121.00000     121.00000     121.00000       0.00000  
toportu0550            0.49426     121.00000     121.00000     121.00000       0.00000  
toportu0560            0.50227     121.00000     121.00000     121.00000       0.00000  
toportu0570            0.33683     121.00000     121.00000     121.00000       0.00000  
toportu0580            0.47134     121.00000     121.00000     121.00000       0.00000  
toportu0590            0.57148     121.00000     121.00000     121.00000       0.00000  
toportu0600            0.39667     121.00000     121.00000     121.00000       0.00000  
toportu0610            0.51959     121.00000     121.00000     121.00000       0.00000  
toportu0620            0.43687     121.00000     121.00000     121.00000       0.00000  
toportu0630            0.46215     121.00000     121.00000     121.00000       0.00000  
toportu0640            0.46031     121.00000     121.00000     121.00000       0.00000  