weather-wgn.cli: written by SWAT+ editor v3.0.4 on 2024-10-15 00:19 for SWAT+ rev.61.0.1
chalaco                        -5.03690     -79.79170      50.00000        20  
 tmp_max_ave   tmp_min_ave    tmp_max_sd    tmp_min_sd       pcp_ave        pcp_sd      pcp_skew       wet_dry       wet_wet      pcp_days       pcp_hhr       slr_ave       dew_ave       wnd_ave  
    31.91065      21.55601       0.47436       1.22840       0.04045       0.25865      10.78787       0.03985       0.17362     225.00000      10.00000       1.00000       1.00000       1.00000  
    32.90344      22.88815       0.51406       0.85939       0.22506       1.26032       8.13550       0.05613       0.13721     187.00000      10.00000       1.00000       1.00000       1.00000  
    32.38327      22.15494       0.62784       1.09602       0.33760       2.13679      12.40923       0.05503       0.11954     197.00000      10.00000       1.00000       1.00000       1.00000  
    31.18771      20.67810       0.67557       1.21456       0.20050       1.73060      19.43661       0.04902       0.11471     176.00000      10.00000       1.00000       1.00000       1.00000  
    29.22941      19.21080       1.15601       1.73317       0.01619       0.16309      14.67308       0.02467       0.10626     149.00000      10.00000       1.00000       1.00000       1.00000  
    26.95517      18.00544       1.25207       1.23516       0.00395       0.06390      15.85653       0.00980       0.09020     104.00000      10.00000       1.00000       1.00000       1.00000  
    25.97411      17.26422       1.11757       1.22800       0.00302       0.03550      17.35307       0.01613       0.14137     168.00000      10.00000       1.00000       1.00000       1.00000  
    25.69296      17.00680       0.87921       1.08756       0.00142       0.00596       7.82335       0.00569       0.14516     159.00000      10.00000       1.00000       1.00000       1.00000  
    26.83662      16.96717       0.87737       0.81366       0.00265       0.03281      28.02789       0.01176       0.17745     197.00000      10.00000       1.00000       1.00000       1.00000  
    27.30874      17.33286       0.84029       0.93394       0.01136       0.18005      24.56493       0.01803       0.11670     147.00000      10.00000       1.00000       1.00000       1.00000  
    28.17383      17.74990       0.66407       0.85964       0.02652       0.24888      14.67001       0.02451       0.11667     147.00000      10.00000       1.00000       1.00000       1.00000  
    30.13762      19.60809       0.65582       1.42040       0.09286       0.85235      14.21898       0.03605       0.13093     186.00000      10.00000       1.00000       1.00000       1.00000  
