weather-sta.cli: written by SWAT+ editor v3.0.4 on 2024-10-15 00:19 for SWAT+ rev.61.0.1
name                           wgn                        pcp                        tmp                        slr                        hmd                        wnd                        pet          atmo_dep  
s5037s79792w               chalaco             chalacopcp.pcp             chalacotmp.tmp                        sim                        sim                        sim                       null              null  
